version 2
run General-0-20200315-21:34:22-20922
attr configname General
attr datetime 20200315-21:34:22
attr experiment General
attr inifile omnetpp.ini
attr iterationvars ""
attr iterationvarsf ""
attr measurement ""
attr network Network
attr processid 20922
attr repetition 0
attr replication #0
attr resultdir results
attr runnumber 0
attr seedset 0
param **.constraintAreaMinX 0m
param **.constraintAreaMinY 0m
param **.constraintAreaMinZ 0m
param **.constraintAreaMaxX 600m
param **.constraintAreaMaxY 400m
param **.constraintAreaMaxZ 0m
param *.node*.ipv4.arp.typename "\"GlobalArp\""
param **.node*.mobility.typename "\"MassMobility\""
param **.node*.mobility.initFromDisplayString true
param **.node*.mobility.changeInterval "truncnormal(2s, 0.5s)"
param **.node*.mobility.angleDelta "normal(0deg, 30deg)"
param **.node*.mobility.speed "truncnormal(20mps, 8mps)"
param **.node*.mobility.updateInterval 100ms
param **.integratedVisualizer.*.mobilityVisualizer.displayPositions true
param **.node*.hasUdp true
param **.node*.ipv4.ip.limitedBroadcast true
param **.node*.numApps 1
param **.node*.app[*].typename "\"UdpApp\""
param **.node*.app[*].messageLength 12B
param **.node*.app[*].delayLimit 1s
param **.node*.app[*].sendInterval 1s
param **.node*.app[*].startTime 0s
param **.node*.app[*].stopTime 10day
param **.node*.app[*].destPort 1024
param **.node*.app[*].localPort 1024
param **.node1.app[0].destAddresses "moduleListByPath(\"**.node2\",\"**.node3\",\"**.node4\")"
param **.node1.app[1].destAddresses "\"\""
param **.node2.app[0].destAddresses "\"node1\""
param **.node2.app[1].destAddresses "\"\""
param **.node3.app[0].destAddresses "\"node1\""
param **.node3.app[1].destAddresses "\"\""
param **.node4.app[0].destAddresses "moduleListByPath(\"**.node1\",\"**.node5\")"
param **.node4.app[1].destAddresses "\"\""
param **.node5.app[0].destAddresses "\"node4\""
param **.node5.app[1].destAddresses "\"\""
param **.node*.app[*].chooseDestAddrMode "\"perBurst\""
param **.node*.app[*].burstDuration 1s
param **.node*.app[*].sleepDuration 0s
param **.node*.wlan[*].mac.promiscuous true
param **.node*.wlan[*].typename "\"AckingWirelessInterface\""
param **.node*.wlan[*].mac.useAck false
param **.node*.wlan[*].mac.fullDuplex true
param **.node*.wlan[*].bitrate 10000000000bps
param **.node*.numWlanInterfaces 1
param **.node*.wlan[*].radio.typename "\"UnitDiskRadio\""
param **.node*.wlan[*].radio.transmitter.typename "\"UnitDiskTransmitter\""
param **.node*.wlan[*].radio.transmitter.communicationRange 200m
param **.node*.wlan[*].radio.receiver.typename "\"UnitDiskReceiver\""
param **.wlan[*].radio.displayCommunicationRange true
param **.wlan[*].radio.receiver.ignoreInterference true
param **.wlan[*].radio.radioMediumModule "\"unitDiskRadioMedium\""
param *.unitDiskRadioMedium.rangeFilter "\"communicationRange\""
param *.unitDiskRadioMedium.signalAnalogRepresentation "\"unitDisk\""
param *.integratedVisualizer.*.mediumVisualizer.mediumModule "\"unitDiskRadioMedium\""
param *.integratedVisualizer.*.mediumVisualizer.packetFilter "\"Coords* NEW*\""
param *.integratedVisualizer.*.mediumVisualizer.displaySignals true
param *.integratedVisualizer.*.mediumVisualizer.signalOpacity 0.3
param *.integratedVisualizer.*.transportRouteVisualizer.displayRoutes false
param *.integratedVisualizer.*.transportConnectionVisualizer.displayTransportConnections false
param *.integratedVisualizer.*.infoVisualizer.displayInfos false

vector 0 Network.node1.wlan[0].queue queueLength:vector ETV
attr interpolationmode sample-hold
attr title "queue length, vector"
vector 1 Network.node2.wlan[0].queue queueLength:vector ETV
attr interpolationmode sample-hold
attr title "queue length, vector"
vector 2 Network.node3.wlan[0].queue queueLength:vector ETV
attr interpolationmode sample-hold
attr title "queue length, vector"
vector 3 Network.node4.wlan[0].queue queueLength:vector ETV
attr interpolationmode sample-hold
attr title "queue length, vector"
vector 4 Network.node5.wlan[0].queue queueLength:vector ETV
attr interpolationmode sample-hold
attr title "queue length, vector"
vector 5 Network.node1.energyStorage powerConsumption:vector ETV
attr interpolationmode sample-hold
attr source powerConsumptionChanged
attr title "Power consumption, vector"
vector 6 Network.node2.energyStorage powerConsumption:vector ETV
attr interpolationmode sample-hold
attr source powerConsumptionChanged
attr title "Power consumption, vector"
vector 7 Network.node3.energyStorage powerConsumption:vector ETV
attr interpolationmode sample-hold
attr source powerConsumptionChanged
attr title "Power consumption, vector"
vector 8 Network.node4.energyStorage powerConsumption:vector ETV
attr interpolationmode sample-hold
attr source powerConsumptionChanged
attr title "Power consumption, vector"
vector 9 Network.node5.energyStorage powerConsumption:vector ETV
attr interpolationmode sample-hold
attr source powerConsumptionChanged
attr title "Power consumption, vector"
vector 10 Network.node1.wlan[0].radio radioMode:vector ETV
attr interpolationmode sample-hold
attr source radioModeChanged
attr title "Radio mode, vector"
vector 11 Network.node1.wlan[0].radio.energyConsumer powerConsumption:vector ETV
attr interpolationmode sample-hold
attr source powerConsumptionChanged
attr title "Power consumption, vector"
vector 12 Network.node2.wlan[0].radio radioMode:vector ETV
attr interpolationmode sample-hold
attr source radioModeChanged
attr title "Radio mode, vector"
vector 13 Network.node2.wlan[0].radio.energyConsumer powerConsumption:vector ETV
attr interpolationmode sample-hold
attr source powerConsumptionChanged
attr title "Power consumption, vector"
vector 14 Network.node3.wlan[0].radio radioMode:vector ETV
attr interpolationmode sample-hold
attr source radioModeChanged
attr title "Radio mode, vector"
vector 15 Network.node3.wlan[0].radio.energyConsumer powerConsumption:vector ETV
attr interpolationmode sample-hold
attr source powerConsumptionChanged
attr title "Power consumption, vector"
vector 16 Network.node4.wlan[0].radio radioMode:vector ETV
attr interpolationmode sample-hold
attr source radioModeChanged
attr title "Radio mode, vector"
vector 17 Network.node4.wlan[0].radio.energyConsumer powerConsumption:vector ETV
attr interpolationmode sample-hold
attr source powerConsumptionChanged
attr title "Power consumption, vector"
vector 18 Network.node5.wlan[0].radio radioMode:vector ETV
attr interpolationmode sample-hold
attr source radioModeChanged
attr title "Radio mode, vector"
vector 19 Network.node5.wlan[0].radio.energyConsumer powerConsumption:vector ETV
attr interpolationmode sample-hold
attr source powerConsumptionChanged
attr title "Power consumption, vector"
vector 20 Network.node1.wlan[0].radio receptionState:vector ETV
attr interpolationmode sample-hold
attr source receptionStateChanged
attr title "Radio reception state, vector"
vector 21 Network.node1.wlan[0].radio transmissionState:vector ETV
attr interpolationmode sample-hold
attr source transmissionStateChanged
attr title "Radio transmission state, vector"
vector 22 Network.node2.wlan[0].radio receptionState:vector ETV
attr interpolationmode sample-hold
attr source receptionStateChanged
attr title "Radio reception state, vector"
vector 23 Network.node2.wlan[0].radio transmissionState:vector ETV
attr interpolationmode sample-hold
attr source transmissionStateChanged
attr title "Radio transmission state, vector"
vector 24 Network.node3.wlan[0].radio receptionState:vector ETV
attr interpolationmode sample-hold
attr source receptionStateChanged
attr title "Radio reception state, vector"
vector 25 Network.node3.wlan[0].radio transmissionState:vector ETV
attr interpolationmode sample-hold
attr source transmissionStateChanged
attr title "Radio transmission state, vector"
vector 26 Network.node4.wlan[0].radio receptionState:vector ETV
attr interpolationmode sample-hold
attr source receptionStateChanged
attr title "Radio reception state, vector"
vector 27 Network.node4.wlan[0].radio transmissionState:vector ETV
attr interpolationmode sample-hold
attr source transmissionStateChanged
attr title "Radio transmission state, vector"
vector 28 Network.node5.wlan[0].radio receptionState:vector ETV
attr interpolationmode sample-hold
attr source receptionStateChanged
attr title "Radio reception state, vector"
vector 29 Network.node5.wlan[0].radio transmissionState:vector ETV
attr interpolationmode sample-hold
attr source transmissionStateChanged
attr title "Radio transmission state, vector"
vector 30 Network.node1.app[0] packetSent:vector(packetBytes) ETV
attr interpolationmode none
attr source packetSent
attr title "packets sent, vector(packetBytes)"
vector 31 Network.node2.app[0] packetSent:vector(packetBytes) ETV
attr interpolationmode none
attr source packetSent
attr title "packets sent, vector(packetBytes)"
vector 32 Network.node3.app[0] packetSent:vector(packetBytes) ETV
attr interpolationmode none
attr source packetSent
attr title "packets sent, vector(packetBytes)"
vector 33 Network.node4.app[0] packetSent:vector(packetBytes) ETV
attr interpolationmode none
attr source packetSent
attr title "packets sent, vector(packetBytes)"
vector 34 Network.node5.app[0] packetSent:vector(packetBytes) ETV
attr interpolationmode none
attr source packetSent
attr title "packets sent, vector(packetBytes)"
vector 35 Network.node1.udp packetSent:vector(packetBytes) ETV
attr interpolationmode none
attr source packetSent
attr title "packets sent, vector(packetBytes)"
vector 36 Network.node2.udp packetSent:vector(packetBytes) ETV
attr interpolationmode none
attr source packetSent
attr title "packets sent, vector(packetBytes)"
vector 37 Network.node3.udp packetSent:vector(packetBytes) ETV
attr interpolationmode none
attr source packetSent
attr title "packets sent, vector(packetBytes)"
vector 38 Network.node4.udp packetSent:vector(packetBytes) ETV
attr interpolationmode none
attr source packetSent
attr title "packets sent, vector(packetBytes)"
vector 39 Network.node5.udp packetSent:vector(packetBytes) ETV
attr interpolationmode none
attr source packetSent
attr title "packets sent, vector(packetBytes)"
vector 40 Network.node1.wlan[0].queue packetReceived:vector(packetBytes) ETV
attr interpolationmode none
attr title "received packets, vector(packetBytes)"
vector 41 Network.node1.wlan[0].queue queueingTime:vector ETV
attr interpolationmode none
attr title "queueing time, vector"
vector 42 Network.node2.wlan[0].queue packetReceived:vector(packetBytes) ETV
attr interpolationmode none
attr title "received packets, vector(packetBytes)"
vector 43 Network.node2.wlan[0].queue queueingTime:vector ETV
attr interpolationmode none
attr title "queueing time, vector"
vector 44 Network.node3.wlan[0].queue packetReceived:vector(packetBytes) ETV
attr interpolationmode none
attr title "received packets, vector(packetBytes)"
vector 45 Network.node3.wlan[0].queue queueingTime:vector ETV
attr interpolationmode none
attr title "queueing time, vector"
vector 46 Network.node4.wlan[0].queue packetReceived:vector(packetBytes) ETV
attr interpolationmode none
attr title "received packets, vector(packetBytes)"
vector 47 Network.node4.wlan[0].queue queueingTime:vector ETV
attr interpolationmode none
attr title "queueing time, vector"
vector 48 Network.node5.wlan[0].queue packetReceived:vector(packetBytes) ETV
attr interpolationmode none
attr title "received packets, vector(packetBytes)"
vector 49 Network.node5.wlan[0].queue queueingTime:vector ETV
attr interpolationmode none
attr title "queueing time, vector"
vector 50 Network.node1.wlan[0].mac rcvdPkFromHl:vector(packetBytes) ETV
attr interpolationmode none
attr source packetReceivedFromUpper
attr title "packets received from higher layer, vector(packetBytes)"
vector 51 Network.node1.wlan[0].mac sentDownPk:vector(packetBytes) ETV
attr interpolationmode none
attr source packetSentToLower
attr title "packets sent to lower layer, vector(packetBytes)"
vector 52 Network.node2.wlan[0].mac rcvdPkFromHl:vector(packetBytes) ETV
attr interpolationmode none
attr source packetReceivedFromUpper
attr title "packets received from higher layer, vector(packetBytes)"
vector 53 Network.node2.wlan[0].mac sentDownPk:vector(packetBytes) ETV
attr interpolationmode none
attr source packetSentToLower
attr title "packets sent to lower layer, vector(packetBytes)"
vector 54 Network.node3.wlan[0].mac rcvdPkFromHl:vector(packetBytes) ETV
attr interpolationmode none
attr source packetReceivedFromUpper
attr title "packets received from higher layer, vector(packetBytes)"
vector 55 Network.node3.wlan[0].mac sentDownPk:vector(packetBytes) ETV
attr interpolationmode none
attr source packetSentToLower
attr title "packets sent to lower layer, vector(packetBytes)"
vector 56 Network.node4.wlan[0].mac rcvdPkFromHl:vector(packetBytes) ETV
attr interpolationmode none
attr source packetReceivedFromUpper
attr title "packets received from higher layer, vector(packetBytes)"
vector 57 Network.node4.wlan[0].mac sentDownPk:vector(packetBytes) ETV
attr interpolationmode none
attr source packetSentToLower
attr title "packets sent to lower layer, vector(packetBytes)"
vector 58 Network.node5.wlan[0].mac rcvdPkFromHl:vector(packetBytes) ETV
attr interpolationmode none
attr source packetReceivedFromUpper
attr title "packets received from higher layer, vector(packetBytes)"
vector 59 Network.node5.wlan[0].mac sentDownPk:vector(packetBytes) ETV
attr interpolationmode none
attr source packetSentToLower
attr title "packets sent to lower layer, vector(packetBytes)"
vector 60 Network.node1.energyStorage residualEnergyCapacity:vector ETV
attr interpolationmode linear
attr source residualEnergyCapacityChanged
attr title "Residual energy capacity, vector"
vector 61 Network.node2.energyStorage residualEnergyCapacity:vector ETV
attr interpolationmode linear
attr source residualEnergyCapacityChanged
attr title "Residual energy capacity, vector"
vector 62 Network.node3.energyStorage residualEnergyCapacity:vector ETV
attr interpolationmode linear
attr source residualEnergyCapacityChanged
attr title "Residual energy capacity, vector"
vector 63 Network.node4.energyStorage residualEnergyCapacity:vector ETV
attr interpolationmode linear
attr source residualEnergyCapacityChanged
attr title "Residual energy capacity, vector"
vector 64 Network.node5.energyStorage residualEnergyCapacity:vector ETV
attr interpolationmode linear
attr source residualEnergyCapacityChanged
attr title "Residual energy capacity, vector"
vector 65 Network.node2.wlan[0].mac rcvdPkFromLl:vector(packetBytes) ETV
attr interpolationmode none
attr source packetReceivedFromLower
attr title "packets received from lower layer, vector(packetBytes)"
vector 66 Network.node2.wlan[0].mac passedUpPk:vector(packetBytes) ETV
attr interpolationmode none
attr source packetSentToUpper
attr title "packets passed to higher layer, vector(packetBytes)"
vector 67 Network.node1.wlan[0].mac rcvdPkFromLl:vector(packetBytes) ETV
attr interpolationmode none
attr source packetReceivedFromLower
attr title "packets received from lower layer, vector(packetBytes)"
vector 68 Network.node1.wlan[0].mac passedUpPk:vector(packetBytes) ETV
attr interpolationmode none
attr source packetSentToUpper
attr title "packets passed to higher layer, vector(packetBytes)"
vector 69 Network.node2.udp packetReceived:vector(packetBytes) ETV
attr interpolationmode none
attr source packetReceived
attr title "packets received, vector(packetBytes)"
vector 70 Network.node2.udp passedUpPk:vector(count) ETV
attr interpolationmode none
attr source packetSentToUpper
attr title "packets passed up, vector(count)"
vector 71 Network.node1.udp packetReceived:vector(packetBytes) ETV
attr interpolationmode none
attr source packetReceived
attr title "packets received, vector(packetBytes)"
vector 72 Network.node1.udp passedUpPk:vector(count) ETV
attr interpolationmode none
attr source packetSentToUpper
attr title "packets passed up, vector(count)"
vector 73 Network.node3.wlan[0].mac rcvdPkFromLl:vector(packetBytes) ETV
attr interpolationmode none
attr source packetReceivedFromLower
attr title "packets received from lower layer, vector(packetBytes)"
vector 74 Network.node3.wlan[0].mac passedUpPk:vector(packetBytes) ETV
attr interpolationmode none
attr source packetSentToUpper
attr title "packets passed to higher layer, vector(packetBytes)"
vector 75 Network.node3.ipv4.ip packetDropForwardingDisabled:vector(packetBytes) ETV
attr interpolationmode none
attr source packetDropReasonIsForwardingDisabled(packetDropped)
attr title "packet drop: forwarding disabled, vector(packetBytes)"
vector 76 Network.node5.wlan[0].mac rcvdPkFromLl:vector(packetBytes) ETV
attr interpolationmode none
attr source packetReceivedFromLower
attr title "packets received from lower layer, vector(packetBytes)"
vector 77 Network.node5.wlan[0].mac passedUpPk:vector(packetBytes) ETV
attr interpolationmode none
attr source packetSentToUpper
attr title "packets passed to higher layer, vector(packetBytes)"
vector 78 Network.node4.wlan[0].mac rcvdPkFromLl:vector(packetBytes) ETV
attr interpolationmode none
attr source packetReceivedFromLower
attr title "packets received from lower layer, vector(packetBytes)"
vector 79 Network.node4.wlan[0].mac passedUpPk:vector(packetBytes) ETV
attr interpolationmode none
attr source packetSentToUpper
attr title "packets passed to higher layer, vector(packetBytes)"
vector 80 Network.node5.ipv4.ip packetDropForwardingDisabled:vector(packetBytes) ETV
attr interpolationmode none
attr source packetDropReasonIsForwardingDisabled(packetDropped)
attr title "packet drop: forwarding disabled, vector(packetBytes)"
vector 81 Network.node4.udp packetReceived:vector(packetBytes) ETV
attr interpolationmode none
attr source packetReceived
attr title "packets received, vector(packetBytes)"
vector 82 Network.node4.udp passedUpPk:vector(count) ETV
attr interpolationmode none
attr source packetSentToUpper
attr title "packets passed up, vector(count)"
vector 83 Network.node2.ipv4.ip packetDropForwardingDisabled:vector(packetBytes) ETV
attr interpolationmode none
attr source packetDropReasonIsForwardingDisabled(packetDropped)
attr title "packet drop: forwarding disabled, vector(packetBytes)"
vector 84 Network.node4.ipv4.ip packetDropForwardingDisabled:vector(packetBytes) ETV
attr interpolationmode none
attr source packetDropReasonIsForwardingDisabled(packetDropped)
attr title "packet drop: forwarding disabled, vector(packetBytes)"
vector 85 Network.node1.ipv4.ip packetDropForwardingDisabled:vector(packetBytes) ETV
attr interpolationmode none
attr source packetDropReasonIsForwardingDisabled(packetDropped)
attr title "packet drop: forwarding disabled, vector(packetBytes)"
vector 86 Network.node4.lo[0].lo rcvdPkFromHl:vector(packetBytes) ETV
attr interpolationmode none
attr source packetReceivedFromUpper
attr title "packets received from higher layer, vector(packetBytes)"
vector 87 Network.node4.lo[0].lo passedUpPk:vector(packetBytes) ETV
attr interpolationmode none
attr source packetSentToUpper
attr title "packets passed to higher layer, vector(packetBytes)"
vector 88 Network.node5.udp packetReceived:vector(packetBytes) ETV
attr interpolationmode none
attr source packetReceived
attr title "packets received, vector(packetBytes)"
vector 89 Network.node5.udp passedUpPk:vector(count) ETV
attr interpolationmode none
attr source packetSentToUpper
attr title "packets passed up, vector(count)"
vector 90 Network.node3.udp packetReceived:vector(packetBytes) ETV
attr interpolationmode none
attr source packetReceived
attr title "packets received, vector(packetBytes)"
vector 91 Network.node3.udp passedUpPk:vector(count) ETV
attr interpolationmode none
attr source packetSentToUpper
attr title "packets passed up, vector(count)"
vector 92 Network.node5.lo[0].lo rcvdPkFromHl:vector(packetBytes) ETV
attr interpolationmode none
attr source packetReceivedFromUpper
attr title "packets received from higher layer, vector(packetBytes)"
vector 93 Network.node5.lo[0].lo passedUpPk:vector(packetBytes) ETV
attr interpolationmode none
attr source packetSentToUpper
attr title "packets passed to higher layer, vector(packetBytes)"
vector 94 Network.node2.lo[0].lo rcvdPkFromHl:vector(packetBytes) ETV
attr interpolationmode none
attr source packetReceivedFromUpper
attr title "packets received from higher layer, vector(packetBytes)"
vector 95 Network.node2.lo[0].lo passedUpPk:vector(packetBytes) ETV
attr interpolationmode none
attr source packetSentToUpper
attr title "packets passed to higher layer, vector(packetBytes)"
vector 96 Network.node1.lo[0].lo rcvdPkFromHl:vector(packetBytes) ETV
attr interpolationmode none
attr source packetReceivedFromUpper
attr title "packets received from higher layer, vector(packetBytes)"
vector 97 Network.node1.lo[0].lo passedUpPk:vector(packetBytes) ETV
attr interpolationmode none
attr source packetSentToUpper
attr title "packets passed to higher layer, vector(packetBytes)"
vector 98 Network.node3.lo[0].lo rcvdPkFromHl:vector(packetBytes) ETV
attr interpolationmode none
attr source packetReceivedFromUpper
attr title "packets received from higher layer, vector(packetBytes)"
vector 99 Network.node3.lo[0].lo passedUpPk:vector(packetBytes) ETV
attr interpolationmode none
attr source packetSentToUpper
attr title "packets passed to higher layer, vector(packetBytes)"
0	0	0	0
0	38	0	1
0	39	0	2
0	55	0.0000000424	1
0	64	0.0000000848	0
0	251	1	1
0	252	1	2
0	268	1.0000000424	1
0	277	1.0000000848	0
0	588	2	1
0	589	2	2
0	608	2.0000000424	1
0	615	2.0000000848	0
0	791	3	1
0	792	3	2
0	811	3.0000000424	1
0	818	3.0000000848	0
0	1081	4	1
0	1082	4	2
0	1099	4.0000000424	1
0	1110	4.0000000848	0
0	1417	5	1
0	1418	5	2
0	1436	5.0000000424	1
0	1446	5.0000000848	0
0	1791	6	1
0	1792	6	2
0	1813	6.0000000424	1
0	1824	6.0000000848	0
0	2167	7	1
0	2193	7.0000000424	0
0	2430	8	1
0	2456	8.0000000424	0
0	2734	9	1
0	2760	9.0000000424	0
0	3006	10	1
0	3032	10.0000000424	0
0	3275	11	1
0	3301	11.0000000424	0
0	3479	12	1
0	3505	12.0000000424	0
0	3684	13	1
0	3710	13.0000000424	0
0	3888	14	1
0	3914	14.0000000424	0
0	4094	15	1
0	4120	15.0000000424	0
0	4298	16	1
0	4324	16.0000000424	0
0	4502	17	1
0	4528	17.0000000424	0
0	4706	18	1
0	4732	18.0000000424	0
0	4910	19	1
0	4936	19.0000000424	0
0	5115	20	1
0	5141	20.0000000424	0
0	5320	21	1
0	5346	21.0000000424	0
0	5523	22	1
0	5549	22.0000000424	0
0	5726	23	1
0	5752	23.0000000424	0
0	5929	24	1
0	5955	24.0000000424	0
0	6130	25	1
0	6158	25.0000000424	0
0	6333	26	1
0	6359	26.0000000424	0
0	6533	27	1
0	6559	27.0000000424	0
0	6739	28	1
0	6765	28.0000000424	0
0	6997	29	1
0	7023	29.0000000424	0
0	7255	30	1
0	7281	30.0000000424	0
0	7513	31	1
0	7539	31.0000000424	0
0	7768	32	1
0	7794	32.0000000424	0
0	7981	33	1
0	8007	33.0000000424	0
0	8197	34	1
0	8223	34.0000000424	0
0	8413	35	1
0	8439	35.0000000424	0
0	8631	36	1
0	8657	36.0000000424	0
0	8844	37	1
0	8870	37.0000000424	0
0	9055	38	1
0	9081	38.0000000424	0
0	9269	39	1
0	9295	39.0000000424	0
0	9484	40	1
0	9510	40.0000000424	0
0	9695	41	1
0	9721	41.0000000424	0
0	9984	42	1
0	10010	42.0000000424	0
0	10243	43	1
0	10269	43.0000000424	0
0	10442	44	1
0	10468	44.0000000424	0
0	10644	45	1
0	10670	45.0000000424	0
0	10843	46	1
0	10869	46.0000000424	0
0	11096	47	1
0	11122	47.0000000424	0
0	11374	48	1
0	11400	48.0000000424	0
0	11608	49	1
0	11634	49.0000000424	0
0	11816	50	1
0	11842	50.0000000424	0
0	12025	51	1
0	12051	51.0000000424	0
0	12237	52	1
0	12263	52.0000000424	0
0	12445	53	1
0	12473	53.0000000424	0
0	12658	54	1
0	12684	54.0000000424	0
0	12909	55	1
0	12935	55.0000000424	0
0	13161	56	1
0	13187	56.0000000424	0
0	13412	57	1
0	13438	57.0000000424	0
0	13664	58	1
0	13690	58.0000000424	0
0	13916	59	1
0	13942	59.0000000424	0
0	14167	60	1
0	14193	60.0000000424	0
0	14527	61	1
0	14553	61.0000000424	0
0	14845	62	1
0	14871	62.0000000424	0
0	15108	63	1
0	15134	63.0000000424	0
0	15434	64	1
0	15460	64.0000000424	0
0	15731	65	1
0	15757	65.0000000424	0
0	16029	66	1
0	16055	66.0000000424	0
0	16334	67	1
0	16360	67.0000000424	0
0	16696	68	1
0	16725	68.0000000424	0
0	17041	69	1
0	17070	69.0000000424	0
0	17351	70	1
0	17381	70.0000000424	0
0	17716	71	1
0	17747	71.0000000424	0
0	18103	72	1
0	18135	72.0000000424	0
0	18381	73	1
0	18413	73.0000000424	0
0	18661	74	1
0	18693	74.0000000424	0
0	18938	75	1
0	18970	75.0000000424	0
0	19271	76	1
0	19303	76.0000000424	0
0	19571	77	1
0	19603	77.0000000424	0
0	19869	78	1
0	19901	78.0000000424	0
0	20172	79	1
0	20204	79.0000000424	0
0	20439	80	1
0	20471	80.0000000424	0
0	20705	81	1
0	20737	81.0000000424	0
0	20969	82	1
0	21001	82.0000000424	0
0	21230	83	1
0	21262	83.0000000424	0
0	21491	84	1
0	21523	84.0000000424	0
0	21747	85	1
0	21779	85.0000000424	0
0	22028	86	1
0	22060	86.0000000424	0
0	22310	87	1
0	22342	87.0000000424	0
0	22591	88	1
0	22623	88.0000000424	0
0	22873	89	1
0	22905	89.0000000424	0
0	23153	90	1
0	23185	90.0000000424	0
0	23434	91	1
0	23466	91.0000000424	0
0	23694	92	1
0	23726	92.0000000424	0
0	23954	93	1
0	23986	93.0000000424	0
0	24238	94	1
0	24270	94.0000000424	0
0	24522	95	1
0	24554	95.0000000424	0
0	24805	96	1
0	24837	96.0000000424	0
0	25090	97	1
0	25122	97.0000000424	0
0	25374	98	1
0	25406	98.0000000424	0
0	25685	99	1
0	25717	99.0000000424	0
0	25965	100	1
0	25997	100.0000000424	0
0	26254	101	1
0	26286	101.0000000424	0
0	26513	102	1
0	26545	102.0000000424	0
0	26772	103	1
0	26804	103.0000000424	0
0	27066	104	1
0	27098	104.0000000424	0
0	27372	105	1
0	27404	105.0000000424	0
0	27677	106	1
0	27709	106.0000000424	0
0	28008	107	1
0	28040	107.0000000424	0
0	28334	108	1
0	28366	108.0000000424	0
0	28610	109	1
0	28642	109.0000000424	0
0	28936	110	1
0	28968	110.0000000424	0
0	29209	111	1
0	29241	111.0000000424	0
0	29511	112	1
0	29543	112.0000000424	0
0	29815	113	1
0	29847	113.0000000424	0
0	30136	114	1
0	30168	114.0000000424	0
0	30403	115	1
0	30435	115.0000000424	0
0	30822	116	1
0	30855	116.0000000424	0
0	31183	117	1
0	31216	117.0000000424	0
0	31577	118	1
0	31610	118.0000000424	0
0	31907	119	1
0	31940	119.0000000424	0
0	32272	120	1
0	32305	120.0000000424	0
0	32643	121	1
0	32676	121.0000000424	0
0	32931	122	1
0	32964	122.0000000424	0
0	33218	123	1
0	33251	123.0000000424	0
0	33570	124	1
0	33603	124.0000000424	0
0	33891	125	1
0	33924	125.0000000424	0
0	34248	126	1
0	34281	126.0000000424	0
0	34564	127	1
0	34597	127.0000000424	0
0	34851	128	1
0	34884	128.0000000424	0
0	35137	129	1
0	35170	129.0000000424	0
0	35479	130	1
0	35512	130.0000000424	0
0	35785	131	1
0	35818	131.0000000424	0
0	36109	132	1
0	36142	132.0000000424	0
0	36472	133	1
0	36505	133.0000000424	0
0	36835	134	1
0	36868	134.0000000424	0
0	37142	135	1
0	37175	135.0000000424	0
0	37474	136	1
0	37507	136.0000000424	0
0	37753	137	1
0	37786	137.0000000424	0
0	38026	138	1
0	38059	138.0000000424	0
0	38330	139	1
0	38363	139.0000000424	0
0	38633	140	1
0	38666	140.0000000424	0
0	38928	141	1
0	38961	141.0000000424	0
0	39222	142	1
0	39255	142.0000000424	0
0	39518	143	1
0	39551	143.0000000424	0
0	39815	144	1
0	39848	144.0000000424	0
0	40109	145	1
0	40142	145.0000000424	0
0	40377	146	1
0	40410	146.0000000424	0
0	40643	147	1
0	40676	147.0000000424	0
0	40909	148	1
0	40942	148.0000000424	0
0	41175	149	1
0	41208	149.0000000424	0
0	41442	150	1
0	41475	150.0000000424	0
0	41707	151	1
0	41740	151.0000000424	0
0	41973	152	1
0	42006	152.0000000424	0
0	42239	153	1
0	42272	153.0000000424	0
0	42504	154	1
0	42537	154.0000000424	0
0	42771	155	1
0	42804	155.0000000424	0
0	43082	156	1
0	43115	156.0000000424	0
0	43396	157	1
0	43429	157.0000000424	0
0	43681	158	1
0	43714	158.0000000424	0
0	44033	159	1
0	44066	159.0000000424	0
0	44355	160	1
0	44388	160.0000000424	0
0	44675	161	1
0	44708	161.0000000424	0
0	44994	162	1
0	45027	162.0000000424	0
0	45277	163	1
0	45310	163.0000000424	0
0	45585	164	1
0	45620	164.0000000424	0
0	45931	165	1
0	45966	165.0000000424	0
0	46204	166	1
0	46237	166.0000000424	0
0	46474	167	1
0	46507	167.0000000424	0
0	46741	168	1
0	46774	168.0000000424	0
0	47007	169	1
0	47040	169.0000000424	0
0	47312	170	1
0	47345	170.0000000424	0
0	47617	171	1
0	47650	171.0000000424	0
0	47923	172	1
0	47956	172.0000000424	0
0	48201	173	1
0	48234	173.0000000424	0
0	48481	174	1
0	48514	174.0000000424	0
0	48757	175	1
0	48790	175.0000000424	0
1	0	0	0
1	1084	4	1
1	1100	4.0000000424	0
1	1420	5	1
1	1437	5.0000000424	0
1	1795	6	1
1	1814	6.0000000424	0
1	2171	7	1
1	2194	7.0000000424	0
1	2434	8	1
1	2457	8.0000000424	0
1	2738	9	1
1	2761	9.0000000424	0
1	3010	10	1
1	3033	10.0000000424	0
1	3279	11	1
1	3302	11.0000000424	0
1	3483	12	1
1	3506	12.0000000424	0
1	3688	13	1
1	3711	13.0000000424	0
1	3892	14	1
1	3915	14.0000000424	0
1	4098	15	1
1	4121	15.0000000424	0
1	4302	16	1
1	4325	16.0000000424	0
1	4506	17	1
1	4529	17.0000000424	0
1	4710	18	1
1	4733	18.0000000424	0
1	4914	19	1
1	4937	19.0000000424	0
1	5119	20	1
1	5142	20.0000000424	0
1	5324	21	1
1	5347	21.0000000424	0
1	5527	22	1
1	5550	22.0000000424	0
1	5730	23	1
1	5753	23.0000000424	0
1	5933	24	1
1	5956	24.0000000424	0
1	6134	25	1
1	6159	25.0000000424	0
1	6337	26	1
1	6360	26.0000000424	0
1	6537	27	1
1	6560	27.0000000424	0
1	6743	28	1
1	6766	28.0000000424	0
1	7001	29	1
1	7024	29.0000000424	0
1	7259	30	1
1	7282	30.0000000424	0
1	7517	31	1
1	7540	31.0000000424	0
1	7772	32	1
1	7795	32.0000000424	0
1	7985	33	1
1	8008	33.0000000424	0
1	8201	34	1
1	8224	34.0000000424	0
1	8417	35	1
1	8440	35.0000000424	0
1	8635	36	1
1	8658	36.0000000424	0
1	8848	37	1
1	8871	37.0000000424	0
1	9059	38	1
1	9082	38.0000000424	0
1	9273	39	1
1	9296	39.0000000424	0
1	9488	40	1
1	9511	40.0000000424	0
1	9699	41	1
1	9722	41.0000000424	0
1	9988	42	1
1	10011	42.0000000424	0
1	10247	43	1
1	10270	43.0000000424	0
1	10446	44	1
1	10469	44.0000000424	0
1	10648	45	1
1	10671	45.0000000424	0
1	10847	46	1
1	10870	46.0000000424	0
1	11100	47	1
1	11123	47.0000000424	0
1	11378	48	1
1	11401	48.0000000424	0
1	11612	49	1
1	11635	49.0000000424	0
1	11820	50	1
1	11843	50.0000000424	0
1	12029	51	1
1	12052	51.0000000424	0
1	12241	52	1
1	12264	52.0000000424	0
1	12449	53	1
1	12474	53.0000000424	0
1	12662	54	1
1	12685	54.0000000424	0
1	12913	55	1
1	12936	55.0000000424	0
1	13165	56	1
1	13188	56.0000000424	0
1	13416	57	1
1	13439	57.0000000424	0
1	13668	58	1
1	13691	58.0000000424	0
1	13920	59	1
1	13943	59.0000000424	0
1	14171	60	1
1	14194	60.0000000424	0
1	14530	61	1
1	14554	61.0000000424	0
1	14848	62	1
1	14872	62.0000000424	0
1	15111	63	1
1	15135	63.0000000424	0
1	15437	64	1
1	15461	64.0000000424	0
1	15734	65	1
1	15758	65.0000000424	0
1	16032	66	1
1	16056	66.0000000424	0
1	16337	67	1
1	16361	67.0000000424	0
1	16699	68	1
1	16726	68.0000000424	0
1	17044	69	1
1	17071	69.0000000424	0
1	17354	70	1
1	17382	70.0000000424	0
1	17719	71	1
1	17748	71.0000000424	0
1	18106	72	1
1	18136	72.0000000424	0
1	18384	73	1
1	18414	73.0000000424	0
1	18664	74	1
1	18694	74.0000000424	0
1	18941	75	1
1	18971	75.0000000424	0
1	19274	76	1
1	19304	76.0000000424	0
1	19574	77	1
1	19604	77.0000000424	0
1	19872	78	1
1	19902	78.0000000424	0
1	20175	79	1
1	20205	79.0000000424	0
1	20442	80	1
1	20472	80.0000000424	0
1	20708	81	1
1	20738	81.0000000424	0
1	20972	82	1
1	21002	82.0000000424	0
1	21233	83	1
1	21263	83.0000000424	0
1	21494	84	1
1	21524	84.0000000424	0
1	21750	85	1
1	21780	85.0000000424	0
1	22031	86	1
1	22061	86.0000000424	0
1	22313	87	1
1	22343	87.0000000424	0
1	22594	88	1
1	22624	88.0000000424	0
1	22876	89	1
1	22906	89.0000000424	0
1	23156	90	1
1	23186	90.0000000424	0
1	23437	91	1
1	23467	91.0000000424	0
1	23697	92	1
1	23727	92.0000000424	0
1	23957	93	1
1	23987	93.0000000424	0
1	24241	94	1
1	24271	94.0000000424	0
1	24525	95	1
1	24555	95.0000000424	0
1	24808	96	1
1	24838	96.0000000424	0
1	25093	97	1
1	25123	97.0000000424	0
1	25377	98	1
1	25407	98.0000000424	0
1	25688	99	1
1	25718	99.0000000424	0
1	25968	100	1
1	25998	100.0000000424	0
1	26257	101	1
1	26287	101.0000000424	0
1	26516	102	1
1	26546	102.0000000424	0
1	26775	103	1
1	26805	103.0000000424	0
1	27069	104	1
1	27099	104.0000000424	0
1	27375	105	1
1	27405	105.0000000424	0
1	27680	106	1
1	27710	106.0000000424	0
1	28011	107	1
1	28041	107.0000000424	0
1	28337	108	1
1	28367	108.0000000424	0
1	28613	109	1
1	28643	109.0000000424	0
1	28939	110	1
1	28969	110.0000000424	0
1	29212	111	1
1	29242	111.0000000424	0
1	29514	112	1
1	29544	112.0000000424	0
1	29818	113	1
1	29848	113.0000000424	0
1	30139	114	1
1	30169	114.0000000424	0
1	30406	115	1
1	30436	115.0000000424	0
1	30825	116	1
1	30856	116.0000000424	0
1	31186	117	1
1	31217	117.0000000424	0
1	31580	118	1
1	31611	118.0000000424	0
1	31910	119	1
1	31941	119.0000000424	0
1	32275	120	1
1	32306	120.0000000424	0
1	32646	121	1
1	32677	121.0000000424	0
1	32934	122	1
1	32965	122.0000000424	0
1	33221	123	1
1	33252	123.0000000424	0
1	33573	124	1
1	33604	124.0000000424	0
1	33894	125	1
1	33925	125.0000000424	0
1	34251	126	1
1	34282	126.0000000424	0
1	34567	127	1
1	34598	127.0000000424	0
1	34854	128	1
1	34885	128.0000000424	0
1	35140	129	1
1	35171	129.0000000424	0
1	35482	130	1
1	35513	130.0000000424	0
1	35788	131	1
1	35819	131.0000000424	0
1	36112	132	1
1	36143	132.0000000424	0
1	36475	133	1
1	36506	133.0000000424	0
1	36838	134	1
1	36869	134.0000000424	0
1	37145	135	1
1	37176	135.0000000424	0
1	37477	136	1
1	37508	136.0000000424	0
1	37756	137	1
1	37787	137.0000000424	0
1	38029	138	1
1	38060	138.0000000424	0
1	38333	139	1
1	38364	139.0000000424	0
1	38636	140	1
1	38667	140.0000000424	0
1	38931	141	1
1	38962	141.0000000424	0
1	39225	142	1
1	39256	142.0000000424	0
1	39521	143	1
1	39552	143.0000000424	0
1	39818	144	1
1	39849	144.0000000424	0
1	40112	145	1
1	40143	145.0000000424	0
1	40380	146	1
1	40411	146.0000000424	0
1	40646	147	1
1	40677	147.0000000424	0
1	40912	148	1
1	40943	148.0000000424	0
1	41178	149	1
1	41209	149.0000000424	0
1	41445	150	1
1	41476	150.0000000424	0
1	41710	151	1
1	41741	151.0000000424	0
1	41976	152	1
1	42007	152.0000000424	0
1	42242	153	1
1	42273	153.0000000424	0
1	42507	154	1
1	42538	154.0000000424	0
1	42774	155	1
1	42805	155.0000000424	0
1	43085	156	1
1	43116	156.0000000424	0
1	43399	157	1
1	43430	157.0000000424	0
1	43684	158	1
1	43715	158.0000000424	0
1	44036	159	1
1	44067	159.0000000424	0
1	44358	160	1
1	44389	160.0000000424	0
1	44678	161	1
1	44709	161.0000000424	0
1	44997	162	1
1	45028	162.0000000424	0
1	45280	163	1
1	45311	163.0000000424	0
1	45588	164	1
1	45621	164.0000000424	0
1	45934	165	1
1	45967	165.0000000424	0
1	46207	166	1
1	46238	166.0000000424	0
1	46477	167	1
1	46508	167.0000000424	0
1	46744	168	1
1	46775	168.0000000424	0
1	47010	169	1
1	47041	169.0000000424	0
1	47315	170	1
1	47346	170.0000000424	0
1	47620	171	1
1	47651	171.0000000424	0
1	47926	172	1
1	47957	172.0000000424	0
1	48204	173	1
1	48235	173.0000000424	0
1	48484	174	1
1	48515	174.0000000424	0
1	48760	175	1
1	48791	175.0000000424	0
2	0	0	0
2	2173	7	1
2	2195	7.0000000424	0
2	2436	8	1
2	2458	8.0000000424	0
2	2740	9	1
2	2762	9.0000000424	0
2	3012	10	1
2	3034	10.0000000424	0
2	3281	11	1
2	3303	11.0000000424	0
2	3485	12	1
2	3507	12.0000000424	0
2	3690	13	1
2	3712	13.0000000424	0
2	3894	14	1
2	3916	14.0000000424	0
2	4100	15	1
2	4122	15.0000000424	0
2	4304	16	1
2	4326	16.0000000424	0
2	4508	17	1
2	4530	17.0000000424	0
2	4712	18	1
2	4734	18.0000000424	0
2	4916	19	1
2	4938	19.0000000424	0
2	5121	20	1
2	5143	20.0000000424	0
2	5326	21	1
2	5348	21.0000000424	0
2	5529	22	1
2	5551	22.0000000424	0
2	5732	23	1
2	5754	23.0000000424	0
2	5935	24	1
2	5957	24.0000000424	0
2	6136	25	1
2	6160	25.0000000424	0
2	6339	26	1
2	6361	26.0000000424	0
2	6539	27	1
2	6561	27.0000000424	0
2	6745	28	1
2	6767	28.0000000424	0
2	7003	29	1
2	7025	29.0000000424	0
2	7261	30	1
2	7283	30.0000000424	0
2	7519	31	1
2	7541	31.0000000424	0
2	7774	32	1
2	7796	32.0000000424	0
2	7987	33	1
2	8009	33.0000000424	0
2	8203	34	1
2	8225	34.0000000424	0
2	8419	35	1
2	8441	35.0000000424	0
2	8637	36	1
2	8659	36.0000000424	0
2	8850	37	1
2	8872	37.0000000424	0
2	9061	38	1
2	9083	38.0000000424	0
2	9275	39	1
2	9297	39.0000000424	0
2	9490	40	1
2	9512	40.0000000424	0
2	9701	41	1
2	9723	41.0000000424	0
2	9990	42	1
2	10012	42.0000000424	0
2	10249	43	1
2	10271	43.0000000424	0
2	10448	44	1
2	10470	44.0000000424	0
2	10650	45	1
2	10672	45.0000000424	0
2	10849	46	1
2	10871	46.0000000424	0
2	11102	47	1
2	11124	47.0000000424	0
2	11380	48	1
2	11402	48.0000000424	0
2	11614	49	1
2	11636	49.0000000424	0
2	11822	50	1
2	11844	50.0000000424	0
2	12031	51	1
2	12053	51.0000000424	0
2	12243	52	1
2	12265	52.0000000424	0
2	12451	53	1
2	12475	53.0000000424	0
2	12664	54	1
2	12686	54.0000000424	0
2	12915	55	1
2	12937	55.0000000424	0
2	13167	56	1
2	13189	56.0000000424	0
2	13418	57	1
2	13440	57.0000000424	0
2	13670	58	1
2	13692	58.0000000424	0
2	13922	59	1
2	13944	59.0000000424	0
2	14173	60	1
2	14195	60.0000000424	0
2	14532	61	1
2	14533	61	2
2	14555	61.0000000424	1
2	14568	61.0000000848	0
2	14850	62	1
2	14851	62	2
2	14873	62.0000000424	1
2	14886	62.0000000848	0
2	15113	63	1
2	15114	63	2
2	15136	63.0000000424	1
2	15149	63.0000000848	0
2	15439	64	1
2	15440	64	2
2	15462	64.0000000424	1
2	15475	64.0000000848	0
2	15736	65	1
2	15737	65	2
2	15759	65.0000000424	1
2	15772	65.0000000848	0
2	16034	66	1
2	16035	66	2
2	16057	66.0000000424	1
2	16070	66.0000000848	0
2	16339	67	1
2	16340	67	2
2	16362	67.0000000424	1
2	16375	67.0000000848	0
2	16701	68	1
2	16727	68.0000000424	0
2	17046	69	1
2	17072	69.0000000424	0
2	17356	70	1
2	17383	70.0000000424	0
2	17721	71	1
2	17723	71	2
2	17749	71.0000000424	1
2	17764	71.0000000848	0
2	18108	72	1
2	18110	72	2
2	18111	72	3
2	18137	72.0000000424	2
2	18152	72.0000000848	1
2	18157	72.0000001272	0
2	18386	73	1
2	18388	73	2
2	18389	73	3
2	18415	73.0000000424	2
2	18430	73.0000000848	1
2	18435	73.0000001272	0
2	18666	74	1
2	18668	74	2
2	18669	74	3
2	18695	74.0000000424	2
2	18710	74.0000000848	1
2	18715	74.0000001272	0
2	18943	75	1
2	18945	75	2
2	18946	75	3
2	18972	75.0000000424	2
2	18987	75.0000000848	1
2	18992	75.0000001272	0
2	19276	76	1
2	19278	76	2
2	19279	76	3
2	19305	76.0000000424	2
2	19320	76.0000000848	1
2	19325	76.0000001272	0
2	19576	77	1
2	19578	77	2
2	19579	77	3
2	19605	77.0000000424	2
2	19620	77.0000000848	1
2	19625	77.0000001272	0
2	19874	78	1
2	19876	78	2
2	19877	78	3
2	19903	78.0000000424	2
2	19918	78.0000000848	1
2	19923	78.0000001272	0
2	20177	79	1
2	20179	79	2
2	20180	79	3
2	20206	79.0000000424	2
2	20221	79.0000000848	1
2	20226	79.0000001272	0
2	20444	80	1
2	20446	80	2
2	20447	80	3
2	20473	80.0000000424	2
2	20488	80.0000000848	1
2	20493	80.0000001272	0
2	20710	81	1
2	20712	81	2
2	20713	81	3
2	20739	81.0000000424	2
2	20754	81.0000000848	1
2	20759	81.0000001272	0
2	20974	82	1
2	20976	82	2
2	20977	82	3
2	21003	82.0000000424	2
2	21018	82.0000000848	1
2	21023	82.0000001272	0
2	21235	83	1
2	21237	83	2
2	21238	83	3
2	21264	83.0000000424	2
2	21279	83.0000000848	1
2	21284	83.0000001272	0
2	21496	84	1
2	21498	84	2
2	21499	84	3
2	21525	84.0000000424	2
2	21540	84.0000000848	1
2	21545	84.0000001272	0
2	21752	85	1
2	21754	85	2
2	21755	85	3
2	21781	85.0000000424	2
2	21796	85.0000000848	1
2	21801	85.0000001272	0
2	22033	86	1
2	22035	86	2
2	22036	86	3
2	22062	86.0000000424	2
2	22077	86.0000000848	1
2	22082	86.0000001272	0
2	22315	87	1
2	22317	87	2
2	22318	87	3
2	22344	87.0000000424	2
2	22359	87.0000000848	1
2	22364	87.0000001272	0
2	22596	88	1
2	22598	88	2
2	22599	88	3
2	22625	88.0000000424	2
2	22640	88.0000000848	1
2	22645	88.0000001272	0
2	22878	89	1
2	22880	89	2
2	22881	89	3
2	22907	89.0000000424	2
2	22922	89.0000000848	1
2	22927	89.0000001272	0
2	23158	90	1
2	23160	90	2
2	23161	90	3
2	23187	90.0000000424	2
2	23202	90.0000000848	1
2	23207	90.0000001272	0
2	23439	91	1
2	23441	91	2
2	23442	91	3
2	23468	91.0000000424	2
2	23483	91.0000000848	1
2	23488	91.0000001272	0
2	23699	92	1
2	23701	92	2
2	23702	92	3
2	23728	92.0000000424	2
2	23743	92.0000000848	1
2	23748	92.0000001272	0
2	23959	93	1
2	23961	93	2
2	23962	93	3
2	23988	93.0000000424	2
2	24003	93.0000000848	1
2	24008	93.0000001272	0
2	24243	94	1
2	24245	94	2
2	24246	94	3
2	24272	94.0000000424	2
2	24287	94.0000000848	1
2	24292	94.0000001272	0
2	24527	95	1
2	24529	95	2
2	24530	95	3
2	24556	95.0000000424	2
2	24571	95.0000000848	1
2	24576	95.0000001272	0
2	24810	96	1
2	24812	96	2
2	24813	96	3
2	24839	96.0000000424	2
2	24854	96.0000000848	1
2	24859	96.0000001272	0
2	25095	97	1
2	25097	97	2
2	25098	97	3
2	25124	97.0000000424	2
2	25139	97.0000000848	1
2	25144	97.0000001272	0
2	25379	98	1
2	25381	98	2
2	25382	98	3
2	25408	98.0000000424	2
2	25423	98.0000000848	1
2	25428	98.0000001272	0
2	25690	99	1
2	25692	99	2
2	25693	99	3
2	25719	99.0000000424	2
2	25734	99.0000000848	1
2	25739	99.0000001272	0
2	25970	100	1
2	25972	100	2
2	25973	100	3
2	25999	100.0000000424	2
2	26014	100.0000000848	1
2	26019	100.0000001272	0
2	26259	101	1
2	26261	101	2
2	26262	101	3
2	26288	101.0000000424	2
2	26303	101.0000000848	1
2	26308	101.0000001272	0
2	26518	102	1
2	26520	102	2
2	26521	102	3
2	26547	102.0000000424	2
2	26562	102.0000000848	1
2	26567	102.0000001272	0
2	26777	103	1
2	26779	103	2
2	26780	103	3
2	26806	103.0000000424	2
2	26821	103.0000000848	1
2	26826	103.0000001272	0
2	27071	104	1
2	27073	104	2
2	27074	104	3
2	27100	104.0000000424	2
2	27115	104.0000000848	1
2	27120	104.0000001272	0
2	27377	105	1
2	27379	105	2
2	27380	105	3
2	27406	105.0000000424	2
2	27421	105.0000000848	1
2	27426	105.0000001272	0
2	27682	106	1
2	27684	106	2
2	27685	106	3
2	27711	106.0000000424	2
2	27726	106.0000000848	1
2	27731	106.0000001272	0
2	28013	107	1
2	28015	107	2
2	28016	107	3
2	28042	107.0000000424	2
2	28057	107.0000000848	1
2	28062	107.0000001272	0
2	28339	108	1
2	28341	108	2
2	28342	108	3
2	28368	108.0000000424	2
2	28383	108.0000000848	1
2	28388	108.0000001272	0
2	28615	109	1
2	28617	109	2
2	28618	109	3
2	28644	109.0000000424	2
2	28659	109.0000000848	1
2	28664	109.0000001272	0
2	28941	110	1
2	28943	110	2
2	28944	110	3
2	28970	110.0000000424	2
2	28985	110.0000000848	1
2	28990	110.0000001272	0
2	29214	111	1
2	29216	111	2
2	29217	111	3
2	29243	111.0000000424	2
2	29258	111.0000000848	1
2	29263	111.0000001272	0
2	29516	112	1
2	29518	112	2
2	29519	112	3
2	29545	112.0000000424	2
2	29560	112.0000000848	1
2	29565	112.0000001272	0
2	29820	113	1
2	29822	113	2
2	29823	113	3
2	29849	113.0000000424	2
2	29864	113.0000000848	1
2	29869	113.0000001272	0
2	30141	114	1
2	30143	114	2
2	30144	114	3
2	30170	114.0000000424	2
2	30185	114.0000000848	1
2	30190	114.0000001272	0
2	30408	115	1
2	30410	115	2
2	30411	115	3
2	30437	115.0000000424	2
2	30452	115.0000000848	1
2	30457	115.0000001272	0
2	30827	116	1
2	30829	116	2
2	30830	116	3
2	30831	116	4
2	30857	116.0000000424	3
2	30872	116.0000000848	2
2	30877	116.0000001272	1
2	30880	116.0000001696	0
2	31188	117	1
2	31190	117	2
2	31191	117	3
2	31192	117	4
2	31218	117.0000000424	3
2	31233	117.0000000848	2
2	31238	117.0000001272	1
2	31241	117.0000001696	0
2	31582	118	1
2	31584	118	2
2	31585	118	3
2	31586	118	4
2	31612	118.0000000424	3
2	31627	118.0000000848	2
2	31632	118.0000001272	1
2	31635	118.0000001696	0
2	31912	119	1
2	31914	119	2
2	31915	119	3
2	31916	119	4
2	31942	119.0000000424	3
2	31957	119.0000000848	2
2	31962	119.0000001272	1
2	31965	119.0000001696	0
2	32277	120	1
2	32279	120	2
2	32280	120	3
2	32281	120	4
2	32307	120.0000000424	3
2	32322	120.0000000848	2
2	32327	120.0000001272	1
2	32330	120.0000001696	0
2	32648	121	1
2	32650	121	2
2	32651	121	3
2	32652	121	4
2	32678	121.0000000424	3
2	32693	121.0000000848	2
2	32698	121.0000001272	1
2	32701	121.0000001696	0
2	32936	122	1
2	32938	122	2
2	32939	122	3
2	32940	122	4
2	32966	122.0000000424	3
2	32981	122.0000000848	2
2	32986	122.0000001272	1
2	32989	122.0000001696	0
2	33223	123	1
2	33225	123	2
2	33226	123	3
2	33227	123	4
2	33253	123.0000000424	3
2	33268	123.0000000848	2
2	33275	123.0000001272	1
2	33286	123.0000001696	0
2	33575	124	1
2	33577	124	2
2	33578	124	3
2	33579	124	4
2	33605	124.0000000424	3
2	33622	124.0000000848	2
2	33635	124.0000001272	1
2	33640	124.0000001696	0
2	33896	125	1
2	33898	125	2
2	33899	125	3
2	33900	125	4
2	33926	125.0000000424	3
2	33941	125.0000000848	2
2	33946	125.0000001272	1
2	33951	125.0000001696	0
2	34253	126	1
2	34255	126	2
2	34256	126	3
2	34257	126	4
2	34283	126.0000000424	3
2	34298	126.0000000848	2
2	34305	126.0000001272	1
2	34318	126.0000001696	0
2	34569	127	1
2	34571	127	2
2	34572	127	3
2	34573	127	4
2	34599	127.0000000424	3
2	34614	127.0000000848	2
2	34621	127.0000001272	1
2	34634	127.0000001696	0
2	34856	128	1
2	34858	128	2
2	34859	128	3
2	34860	128	4
2	34886	128.0000000424	3
2	34901	128.0000000848	2
2	34906	128.0000001272	1
2	34911	128.0000001696	0
2	35142	129	1
2	35144	129	2
2	35145	129	3
2	35146	129	4
2	35172	129.0000000424	3
2	35187	129.0000000848	2
2	35192	129.0000001272	1
2	35195	129.0000001696	0
2	35484	130	1
2	35486	130	2
2	35487	130	3
2	35488	130	4
2	35514	130.0000000424	3
2	35529	130.0000000848	2
2	35534	130.0000001272	1
2	35537	130.0000001696	0
2	35790	131	1
2	35792	131	2
2	35793	131	3
2	35794	131	4
2	35820	131.0000000424	3
2	35835	131.0000000848	2
2	35840	131.0000001272	1
2	35843	131.0000001696	0
2	36114	132	1
2	36116	132	2
2	36117	132	3
2	36118	132	4
2	36144	132.0000000424	3
2	36159	132.0000000848	2
2	36164	132.0000001272	1
2	36167	132.0000001696	0
2	36477	133	1
2	36479	133	2
2	36480	133	3
2	36481	133	4
2	36507	133.0000000424	3
2	36522	133.0000000848	2
2	36527	133.0000001272	1
2	36530	133.0000001696	0
2	36840	134	1
2	36842	134	2
2	36843	134	3
2	36844	134	4
2	36870	134.0000000424	3
2	36885	134.0000000848	2
2	36890	134.0000001272	1
2	36893	134.0000001696	0
2	37147	135	1
2	37149	135	2
2	37150	135	3
2	37151	135	4
2	37177	135.0000000424	3
2	37192	135.0000000848	2
2	37197	135.0000001272	1
2	37200	135.0000001696	0
2	37479	136	1
2	37481	136	2
2	37482	136	3
2	37483	136	4
2	37509	136.0000000424	3
2	37524	136.0000000848	2
2	37529	136.0000001272	1
2	37532	136.0000001696	0
2	37758	137	1
2	37760	137	2
2	37761	137	3
2	37762	137	4
2	37788	137.0000000424	3
2	37803	137.0000000848	2
2	37808	137.0000001272	1
2	37811	137.0000001696	0
2	38031	138	1
2	38033	138	2
2	38034	138	3
2	38035	138	4
2	38061	138.0000000424	3
2	38076	138.0000000848	2
2	38081	138.0000001272	1
2	38084	138.0000001696	0
2	38335	139	1
2	38337	139	2
2	38338	139	3
2	38339	139	4
2	38365	139.0000000424	3
2	38380	139.0000000848	2
2	38385	139.0000001272	1
2	38388	139.0000001696	0
2	38638	140	1
2	38640	140	2
2	38641	140	3
2	38642	140	4
2	38668	140.0000000424	3
2	38683	140.0000000848	2
2	38688	140.0000001272	1
2	38691	140.0000001696	0
2	38933	141	1
2	38935	141	2
2	38936	141	3
2	38937	141	4
2	38963	141.0000000424	3
2	38978	141.0000000848	2
2	38983	141.0000001272	1
2	38986	141.0000001696	0
2	39227	142	1
2	39229	142	2
2	39230	142	3
2	39231	142	4
2	39257	142.0000000424	3
2	39272	142.0000000848	2
2	39277	142.0000001272	1
2	39280	142.0000001696	0
2	39523	143	1
2	39525	143	2
2	39526	143	3
2	39527	143	4
2	39553	143.0000000424	3
2	39568	143.0000000848	2
2	39575	143.0000001272	1
2	39586	143.0000001696	0
2	39820	144	1
2	39822	144	2
2	39823	144	3
2	39824	144	4
2	39850	144.0000000424	3
2	39865	144.0000000848	2
2	39872	144.0000001272	1
2	39883	144.0000001696	0
2	40114	145	1
2	40116	145	2
2	40117	145	3
2	40118	145	4
2	40144	145.0000000424	3
2	40159	145.0000000848	2
2	40164	145.0000001272	1
2	40169	145.0000001696	0
2	40382	146	1
2	40384	146	2
2	40385	146	3
2	40386	146	4
2	40412	146.0000000424	3
2	40427	146.0000000848	2
2	40432	146.0000001272	1
2	40435	146.0000001696	0
2	40648	147	1
2	40650	147	2
2	40651	147	3
2	40652	147	4
2	40678	147.0000000424	3
2	40693	147.0000000848	2
2	40698	147.0000001272	1
2	40701	147.0000001696	0
2	40914	148	1
2	40916	148	2
2	40917	148	3
2	40918	148	4
2	40944	148.0000000424	3
2	40959	148.0000000848	2
2	40964	148.0000001272	1
2	40967	148.0000001696	0
2	41180	149	1
2	41182	149	2
2	41183	149	3
2	41184	149	4
2	41210	149.0000000424	3
2	41225	149.0000000848	2
2	41230	149.0000001272	1
2	41233	149.0000001696	0
2	41447	150	1
2	41449	150	2
2	41450	150	3
2	41451	150	4
2	41477	150.0000000424	3
2	41492	150.0000000848	2
2	41497	150.0000001272	1
2	41500	150.0000001696	0
2	41712	151	1
2	41714	151	2
2	41715	151	3
2	41716	151	4
2	41742	151.0000000424	3
2	41757	151.0000000848	2
2	41762	151.0000001272	1
2	41765	151.0000001696	0
2	41978	152	1
2	41980	152	2
2	41981	152	3
2	41982	152	4
2	42008	152.0000000424	3
2	42023	152.0000000848	2
2	42028	152.0000001272	1
2	42031	152.0000001696	0
2	42244	153	1
2	42246	153	2
2	42247	153	3
2	42248	153	4
2	42274	153.0000000424	3
2	42289	153.0000000848	2
2	42296	153.0000001272	1
2	42307	153.0000001696	0
2	42509	154	1
2	42511	154	2
2	42512	154	3
2	42513	154	4
2	42539	154.0000000424	3
2	42556	154.0000000848	2
2	42569	154.0000001272	1
2	42574	154.0000001696	0
2	42776	155	1
2	42778	155	2
2	42779	155	3
2	42780	155	4
2	42806	155.0000000424	3
2	42823	155.0000000848	2
2	42836	155.0000001272	1
2	42841	155.0000001696	0
2	43087	156	1
2	43089	156	2
2	43090	156	3
2	43091	156	4
2	43117	156.0000000424	3
2	43132	156.0000000848	2
2	43139	156.0000001272	1
2	43150	156.0000001696	0
2	43401	157	1
2	43403	157	2
2	43404	157	3
2	43405	157	4
2	43431	157.0000000424	3
2	43446	157.0000000848	2
2	43451	157.0000001272	1
2	43456	157.0000001696	0
2	43686	158	1
2	43688	158	2
2	43689	158	3
2	43690	158	4
2	43716	158.0000000424	3
2	43733	158.0000000848	2
2	43748	158.0000001272	1
2	43753	158.0000001696	0
2	44038	159	1
2	44040	159	2
2	44041	159	3
2	44042	159	4
2	44068	159.0000000424	3
2	44083	159.0000000848	2
2	44088	159.0000001272	1
2	44093	159.0000001696	0
2	44360	160	1
2	44362	160	2
2	44363	160	3
2	44364	160	4
2	44390	160.0000000424	3
2	44405	160.0000000848	2
2	44410	160.0000001272	1
2	44415	160.0000001696	0
2	44680	161	1
2	44682	161	2
2	44683	161	3
2	44684	161	4
2	44710	161.0000000424	3
2	44725	161.0000000848	2
2	44730	161.0000001272	1
2	44735	161.0000001696	0
2	44999	162	1
2	45001	162	2
2	45002	162	3
2	45003	162	4
2	45029	162.0000000424	3
2	45044	162.0000000848	2
2	45049	162.0000001272	1
2	45054	162.0000001696	0
2	45282	163	1
2	45284	163	2
2	45285	163	3
2	45286	163	4
2	45312	163.0000000424	3
2	45327	163.0000000848	2
2	45334	163.0000001272	1
2	45345	163.0000001696	0
2	45590	164	1
2	45592	164	2
2	45593	164	3
2	45594	164	4
2	45622	164.0000000424	3
2	45645	164.0000000848	2
2	45658	164.0000001272	1
2	45661	164.0000001696	0
2	45936	165	1
2	45938	165	2
2	45939	165	3
2	45940	165	4
2	45968	165.0000000424	3
2	45991	165.0000000848	2
2	46004	165.0000001272	1
2	46007	165.0000001696	0
2	46209	166	1
2	46211	166	2
2	46212	166	3
2	46213	166	4
2	46239	166.0000000424	3
2	46254	166.0000000848	2
2	46261	166.0000001272	1
2	46272	166.0000001696	0
2	46479	167	1
2	46481	167	2
2	46482	167	3
2	46483	167	4
2	46509	167.0000000424	3
2	46524	167.0000000848	2
2	46529	167.0000001272	1
2	46534	167.0000001696	0
2	46746	168	1
2	46748	168	2
2	46749	168	3
2	46750	168	4
2	46776	168.0000000424	3
2	46791	168.0000000848	2
2	46796	168.0000001272	1
2	46799	168.0000001696	0
2	47012	169	1
2	47014	169	2
2	47015	169	3
2	47016	169	4
2	47042	169.0000000424	3
2	47057	169.0000000848	2
2	47062	169.0000001272	1
2	47065	169.0000001696	0
2	47317	170	1
2	47319	170	2
2	47320	170	3
2	47321	170	4
2	47347	170.0000000424	3
2	47362	170.0000000848	2
2	47367	170.0000001272	1
2	47370	170.0000001696	0
2	47622	171	1
2	47624	171	2
2	47625	171	3
2	47626	171	4
2	47652	171.0000000424	3
2	47667	171.0000000848	2
2	47672	171.0000001272	1
2	47675	171.0000001696	0
2	47928	172	1
2	47930	172	2
2	47931	172	3
2	47932	172	4
2	47958	172.0000000424	3
2	47973	172.0000000848	2
2	47978	172.0000001272	1
2	47981	172.0000001696	0
2	48206	173	1
2	48208	173	2
2	48209	173	3
2	48210	173	4
2	48236	173.0000000424	3
2	48251	173.0000000848	2
2	48256	173.0000001272	1
2	48259	173.0000001696	0
2	48486	174	1
2	48488	174	2
2	48489	174	3
2	48490	174	4
2	48516	174.0000000424	3
2	48531	174.0000000848	2
2	48536	174.0000001272	1
2	48539	174.0000001696	0
2	48762	175	1
2	48764	175	2
2	48765	175	3
2	48766	175	4
2	48792	175.0000000424	3
2	48807	175.0000000848	2
2	48812	175.0000001272	1
2	48815	175.0000001696	0
3	0	0	0
3	43	0	1
3	58	0.0000000424	0
3	256	1	1
3	271	1.0000000424	0
3	1087	4	1
3	1102	4.0000000424	0
3	1423	5	1
3	1439	5.0000000424	0
3	1798	6	1
3	1816	6.0000000424	0
3	2175	7	1
3	2196	7.0000000424	0
3	2438	8	1
3	2459	8.0000000424	0
3	2742	9	1
3	2763	9.0000000424	0
3	3014	10	1
3	3035	10.0000000424	0
3	3283	11	1
3	3304	11.0000000424	0
3	3487	12	1
3	3508	12.0000000424	0
3	3692	13	1
3	3713	13.0000000424	0
3	3896	14	1
3	3917	14.0000000424	0
3	4102	15	1
3	4123	15.0000000424	0
3	4306	16	1
3	4327	16.0000000424	0
3	4510	17	1
3	4531	17.0000000424	0
3	4714	18	1
3	4735	18.0000000424	0
3	4918	19	1
3	4939	19.0000000424	0
3	5123	20	1
3	5144	20.0000000424	0
3	5328	21	1
3	5349	21.0000000424	0
3	5531	22	1
3	5552	22.0000000424	0
3	5734	23	1
3	5755	23.0000000424	0
3	5937	24	1
3	5958	24.0000000424	0
3	6138	25	1
3	6161	25.0000000424	0
3	6341	26	1
3	6362	26.0000000424	0
3	6541	27	1
3	6562	27.0000000424	0
3	6747	28	1
3	6768	28.0000000424	0
3	7005	29	1
3	7026	29.0000000424	0
3	7263	30	1
3	7284	30.0000000424	0
3	7521	31	1
3	7542	31.0000000424	0
3	7776	32	1
3	7797	32.0000000424	0
3	7989	33	1
3	8010	33.0000000424	0
3	8205	34	1
3	8226	34.0000000424	0
3	8421	35	1
3	8442	35.0000000424	0
3	8639	36	1
3	8660	36.0000000424	0
3	8852	37	1
3	8873	37.0000000424	0
3	9063	38	1
3	9084	38.0000000424	0
3	9277	39	1
3	9298	39.0000000424	0
3	9492	40	1
3	9513	40.0000000424	0
3	9703	41	1
3	9724	41.0000000424	0
3	9992	42	1
3	10013	42.0000000424	0
3	10251	43	1
3	10272	43.0000000424	0
3	10450	44	1
3	10471	44.0000000424	0
3	10652	45	1
3	10673	45.0000000424	0
3	10851	46	1
3	10872	46.0000000424	0
3	11104	47	1
3	11125	47.0000000424	0
3	11382	48	1
3	11403	48.0000000424	0
3	11616	49	1
3	11637	49.0000000424	0
3	11824	50	1
3	11845	50.0000000424	0
3	12033	51	1
3	12054	51.0000000424	0
3	12245	52	1
3	12266	52.0000000424	0
3	12453	53	1
3	12476	53.0000000424	0
3	12666	54	1
3	12687	54.0000000424	0
3	12917	55	1
3	12938	55.0000000424	0
3	13169	56	1
3	13190	56.0000000424	0
3	13420	57	1
3	13441	57.0000000424	0
3	13672	58	1
3	13693	58.0000000424	0
3	13924	59	1
3	13945	59.0000000424	0
3	14175	60	1
3	14196	60.0000000424	0
3	14535	61	1
3	14556	61.0000000424	0
3	14853	62	1
3	14874	62.0000000424	0
3	15116	63	1
3	15137	63.0000000424	0
3	15442	64	1
3	15463	64.0000000424	0
3	15739	65	1
3	15760	65.0000000424	0
3	16037	66	1
3	16058	66.0000000424	0
3	16342	67	1
3	16363	67.0000000424	0
3	16704	68	1
3	16728	68.0000000424	0
3	17049	69	1
3	17073	69.0000000424	0
3	17359	70	1
3	17384	70.0000000424	0
3	17725	71	1
3	17750	71.0000000424	0
3	18113	72	1
3	18138	72.0000000424	0
3	18391	73	1
3	18416	73.0000000424	0
3	18671	74	1
3	18696	74.0000000424	0
3	18948	75	1
3	18973	75.0000000424	0
3	19281	76	1
3	19306	76.0000000424	0
3	19581	77	1
3	19606	77.0000000424	0
3	19879	78	1
3	19904	78.0000000424	0
3	20182	79	1
3	20207	79.0000000424	0
3	20449	80	1
3	20474	80.0000000424	0
3	20715	81	1
3	20740	81.0000000424	0
3	20979	82	1
3	21004	82.0000000424	0
3	21240	83	1
3	21265	83.0000000424	0
3	21501	84	1
3	21526	84.0000000424	0
3	21757	85	1
3	21782	85.0000000424	0
3	22038	86	1
3	22063	86.0000000424	0
3	22320	87	1
3	22345	87.0000000424	0
3	22601	88	1
3	22626	88.0000000424	0
3	22883	89	1
3	22908	89.0000000424	0
3	23163	90	1
3	23188	90.0000000424	0
3	23444	91	1
3	23469	91.0000000424	0
3	23704	92	1
3	23729	92.0000000424	0
3	23964	93	1
3	23989	93.0000000424	0
3	24248	94	1
3	24273	94.0000000424	0
3	24532	95	1
3	24557	95.0000000424	0
3	24815	96	1
3	24840	96.0000000424	0
3	25100	97	1
3	25125	97.0000000424	0
3	25384	98	1
3	25409	98.0000000424	0
3	25695	99	1
3	25720	99.0000000424	0
3	25975	100	1
3	26000	100.0000000424	0
3	26264	101	1
3	26289	101.0000000424	0
3	26523	102	1
3	26548	102.0000000424	0
3	26782	103	1
3	26807	103.0000000424	0
3	27076	104	1
3	27101	104.0000000424	0
3	27382	105	1
3	27407	105.0000000424	0
3	27687	106	1
3	27712	106.0000000424	0
3	28018	107	1
3	28043	107.0000000424	0
3	28344	108	1
3	28369	108.0000000424	0
3	28620	109	1
3	28645	109.0000000424	0
3	28946	110	1
3	28971	110.0000000424	0
3	29219	111	1
3	29244	111.0000000424	0
3	29521	112	1
3	29546	112.0000000424	0
3	29825	113	1
3	29850	113.0000000424	0
3	30146	114	1
3	30171	114.0000000424	0
3	30413	115	1
3	30438	115.0000000424	0
3	30833	116	1
3	30858	116.0000000424	0
3	31194	117	1
3	31219	117.0000000424	0
3	31588	118	1
3	31613	118.0000000424	0
3	31918	119	1
3	31943	119.0000000424	0
3	32283	120	1
3	32308	120.0000000424	0
3	32654	121	1
3	32679	121.0000000424	0
3	32942	122	1
3	32967	122.0000000424	0
3	33229	123	1
3	33254	123.0000000424	0
3	33581	124	1
3	33606	124.0000000424	0
3	33902	125	1
3	33927	125.0000000424	0
3	34259	126	1
3	34284	126.0000000424	0
3	34575	127	1
3	34600	127.0000000424	0
3	34862	128	1
3	34887	128.0000000424	0
3	35148	129	1
3	35173	129.0000000424	0
3	35490	130	1
3	35515	130.0000000424	0
3	35796	131	1
3	35821	131.0000000424	0
3	36120	132	1
3	36145	132.0000000424	0
3	36483	133	1
3	36508	133.0000000424	0
3	36846	134	1
3	36871	134.0000000424	0
3	37153	135	1
3	37178	135.0000000424	0
3	37485	136	1
3	37510	136.0000000424	0
3	37764	137	1
3	37789	137.0000000424	0
3	38037	138	1
3	38062	138.0000000424	0
3	38341	139	1
3	38366	139.0000000424	0
3	38644	140	1
3	38669	140.0000000424	0
3	38939	141	1
3	38964	141.0000000424	0
3	39233	142	1
3	39258	142.0000000424	0
3	39529	143	1
3	39554	143.0000000424	0
3	39826	144	1
3	39851	144.0000000424	0
3	40120	145	1
3	40145	145.0000000424	0
3	40388	146	1
3	40413	146.0000000424	0
3	40654	147	1
3	40679	147.0000000424	0
3	40920	148	1
3	40945	148.0000000424	0
3	41186	149	1
3	41211	149.0000000424	0
3	41453	150	1
3	41478	150.0000000424	0
3	41718	151	1
3	41743	151.0000000424	0
3	41984	152	1
3	42009	152.0000000424	0
3	42250	153	1
3	42275	153.0000000424	0
3	42515	154	1
3	42540	154.0000000424	0
3	42782	155	1
3	42807	155.0000000424	0
3	43093	156	1
3	43118	156.0000000424	0
3	43407	157	1
3	43432	157.0000000424	0
3	43692	158	1
3	43717	158.0000000424	0
3	44044	159	1
3	44069	159.0000000424	0
3	44366	160	1
3	44391	160.0000000424	0
3	44686	161	1
3	44711	161.0000000424	0
3	45005	162	1
3	45030	162.0000000424	0
3	45288	163	1
3	45313	163.0000000424	0
3	45596	164	1
3	45623	164.0000000424	0
3	45942	165	1
3	45969	165.0000000424	0
3	46215	166	1
3	46240	166.0000000424	0
3	46485	167	1
3	46510	167.0000000424	0
3	46752	168	1
3	46777	168.0000000424	0
3	47018	169	1
3	47043	169.0000000424	0
3	47323	170	1
3	47348	170.0000000424	0
3	47628	171	1
3	47653	171.0000000424	0
3	47934	172	1
3	47959	172.0000000424	0
3	48212	173	1
3	48237	173.0000000424	0
3	48492	174	1
3	48517	174.0000000424	0
3	48768	175	1
3	48793	175.0000000424	0
4	0	0	0
4	17361	70	1
4	17385	70.0000000424	0
4	17727	71	1
4	17751	71.0000000424	0
4	18115	72	1
4	18139	72.0000000424	0
4	18393	73	1
4	18417	73.0000000424	0
4	18673	74	1
4	18697	74.0000000424	0
4	18950	75	1
4	18974	75.0000000424	0
4	19283	76	1
4	19307	76.0000000424	0
4	19583	77	1
4	19607	77.0000000424	0
4	19881	78	1
4	19905	78.0000000424	0
4	20184	79	1
4	20208	79.0000000424	0
4	20451	80	1
4	20475	80.0000000424	0
4	20717	81	1
4	20741	81.0000000424	0
4	20981	82	1
4	21005	82.0000000424	0
4	21242	83	1
4	21266	83.0000000424	0
4	21503	84	1
4	21527	84.0000000424	0
4	21759	85	1
4	21783	85.0000000424	0
4	22040	86	1
4	22064	86.0000000424	0
4	22322	87	1
4	22346	87.0000000424	0
4	22603	88	1
4	22627	88.0000000424	0
4	22885	89	1
4	22909	89.0000000424	0
4	23165	90	1
4	23189	90.0000000424	0
4	23446	91	1
4	23470	91.0000000424	0
4	23706	92	1
4	23730	92.0000000424	0
4	23966	93	1
4	23990	93.0000000424	0
4	24250	94	1
4	24274	94.0000000424	0
4	24534	95	1
4	24558	95.0000000424	0
4	24817	96	1
4	24841	96.0000000424	0
4	25102	97	1
4	25126	97.0000000424	0
4	25386	98	1
4	25410	98.0000000424	0
4	25697	99	1
4	25721	99.0000000424	0
4	25977	100	1
4	26001	100.0000000424	0
4	26266	101	1
4	26290	101.0000000424	0
4	26525	102	1
4	26549	102.0000000424	0
4	26784	103	1
4	26808	103.0000000424	0
4	27078	104	1
4	27102	104.0000000424	0
4	27384	105	1
4	27408	105.0000000424	0
4	27689	106	1
4	27713	106.0000000424	0
4	28020	107	1
4	28044	107.0000000424	0
4	28346	108	1
4	28370	108.0000000424	0
4	28622	109	1
4	28646	109.0000000424	0
4	28948	110	1
4	28972	110.0000000424	0
4	29221	111	1
4	29245	111.0000000424	0
4	29523	112	1
4	29547	112.0000000424	0
4	29827	113	1
4	29851	113.0000000424	0
4	30148	114	1
4	30172	114.0000000424	0
4	30415	115	1
4	30439	115.0000000424	0
4	30835	116	1
4	30859	116.0000000424	0
4	31196	117	1
4	31220	117.0000000424	0
4	31590	118	1
4	31614	118.0000000424	0
4	31920	119	1
4	31944	119.0000000424	0
4	32285	120	1
4	32309	120.0000000424	0
4	32656	121	1
4	32680	121.0000000424	0
4	32944	122	1
4	32968	122.0000000424	0
4	33231	123	1
4	33255	123.0000000424	0
4	33583	124	1
4	33607	124.0000000424	0
4	33904	125	1
4	33928	125.0000000424	0
4	34261	126	1
4	34285	126.0000000424	0
4	34577	127	1
4	34601	127.0000000424	0
4	34864	128	1
4	34888	128.0000000424	0
4	35150	129	1
4	35174	129.0000000424	0
4	35492	130	1
4	35516	130.0000000424	0
4	35798	131	1
4	35822	131.0000000424	0
4	36122	132	1
4	36146	132.0000000424	0
4	36485	133	1
4	36509	133.0000000424	0
4	36848	134	1
4	36872	134.0000000424	0
4	37155	135	1
4	37179	135.0000000424	0
4	37487	136	1
4	37511	136.0000000424	0
4	37766	137	1
4	37790	137.0000000424	0
4	38039	138	1
4	38063	138.0000000424	0
4	38343	139	1
4	38367	139.0000000424	0
4	38646	140	1
4	38670	140.0000000424	0
4	38941	141	1
4	38965	141.0000000424	0
4	39235	142	1
4	39259	142.0000000424	0
4	39531	143	1
4	39555	143.0000000424	0
4	39828	144	1
4	39852	144.0000000424	0
4	40122	145	1
4	40146	145.0000000424	0
4	40390	146	1
4	40414	146.0000000424	0
4	40656	147	1
4	40680	147.0000000424	0
4	40922	148	1
4	40946	148.0000000424	0
4	41188	149	1
4	41212	149.0000000424	0
4	41455	150	1
4	41479	150.0000000424	0
4	41720	151	1
4	41744	151.0000000424	0
4	41986	152	1
4	42010	152.0000000424	0
4	42252	153	1
4	42276	153.0000000424	0
4	42517	154	1
4	42541	154.0000000424	0
4	42784	155	1
4	42808	155.0000000424	0
4	43095	156	1
4	43119	156.0000000424	0
4	43409	157	1
4	43433	157.0000000424	0
4	43694	158	1
4	43718	158.0000000424	0
4	44046	159	1
4	44070	159.0000000424	0
4	44368	160	1
4	44392	160.0000000424	0
4	44688	161	1
4	44712	161.0000000424	0
4	45007	162	1
4	45031	162.0000000424	0
4	45290	163	1
4	45314	163.0000000424	0
4	45598	164	1
4	45624	164.0000000424	0
4	45944	165	1
4	45970	165.0000000424	0
4	46217	166	1
4	46241	166.0000000424	0
4	46487	167	1
4	46511	167.0000000424	0
4	46754	168	1
4	46778	168.0000000424	0
4	47020	169	1
4	47044	169.0000000424	0
4	47325	170	1
4	47349	170.0000000424	0
4	47630	171	1
4	47654	171.0000000424	0
4	47936	172	1
4	47960	172.0000000424	0
4	48214	173	1
4	48238	173.0000000424	0
4	48494	174	1
4	48518	174.0000000424	0
4	48770	175	1
4	48794	175.0000000424	0
5	0	0	0
5	0	0	0
5	0	0	0
5	0	0	0
5	0	0	5e-06
5	0	0	0.005005
5	50	0	5e-06
5	50	0	0.075005
5	55	0.0000000424	0.005005
5	55	0.0000000424	0.005005
5	62	0.0000000424	5e-06
5	62	0.0000000424	0.075005
5	64	0.0000000848	0.005005
5	64	0.0000000848	0.005005
5	67	0.0000000848	5e-06
5	67	0.0000000848	0.075005
5	68	0.0000001272	0.005005
5	68	0.0000001272	0.005005
5	70	0.000000314418	0.005
5	70	0.000000314418	0.055
5	73	0.000000356818	0.005005
5	73	0.000000356818	0.005005
5	83	0.000000359585	0.005
5	83	0.000000359585	0.055
5	92	0.000000401985	0.005005
5	92	0.000000401985	0.005005
5	100	0.000000404164	0.005
5	100	0.000000404164	0.055
5	120	0.000000446564	0.0051
5	120	0.000000446564	0.0051
5	131	0.000000488964	0.005005
5	137	0.000000522451	0.005
5	137	0.000000522451	0.055
5	150	0.000000564851	0.005005
5	150	0.000000564851	0.005005
5	263	1	5e-06
5	263	1	0.075005
5	268	1.0000000424	0.005005
5	268	1.0000000424	0.005005
5	275	1.0000000424	5e-06
5	275	1.0000000424	0.075005
5	277	1.0000000848	0.005005
5	277	1.0000000848	0.005005
5	280	1.0000000848	5e-06
5	280	1.0000000848	0.075005
5	281	1.0000001272	0.005005
5	281	1.0000001272	0.005005
5	283	1.000000227489	0.005
5	283	1.000000227489	0.055
5	286	1.000000269889	0.005005
5	286	1.000000269889	0.005005
5	294	1.000000301409	0.005
5	294	1.000000301409	0.055
5	299	1.000000343809	0.005005
5	299	1.000000343809	0.005005
5	334	1.000000440193	0.005
5	334	1.000000440193	0.055
5	340	1.000000482593	0.0051
5	340	1.000000482593	0.0051
5	348	1.000000523614	0.005
5	348	1.000000523614	0.055
5	364	1.000000566014	0.005005
5	364	1.000000566014	0.005005
5	430	1.000001089628	0.005
5	430	1.000001089628	0.055
5	432	1.000001132028	0.005005
5	432	1.000001132028	0.005005
5	470	1.000001452784	0.005
5	470	1.000001452784	0.055
5	473	1.000001495184	0.0051
5	473	1.000001495184	0.0051
5	477	1.000001511032	0.005005
5	601	2	5e-06
5	601	2	0.075005
5	608	2.0000000424	0.005005
5	608	2.0000000424	0.005005
5	614	2.0000000424	5e-06
5	614	2.0000000424	0.075005
5	615	2.0000000848	0.005005
5	615	2.0000000848	0.005005
5	617	2.0000000848	5e-06
5	617	2.0000000848	0.075005
5	619	2.000000096963	0.075
5	619	2.000000096963	0.125
5	620	2.0000001272	0.055
5	620	2.0000001272	0.055
5	623	2.000000139363	0.005005
5	623	2.000000139363	0.005005
5	636	2.000000302017	0.005
5	636	2.000000302017	0.055
5	641	2.000000344417	0.0051
5	641	2.000000344417	0.0051
5	656	2.000000378123	0.005005
5	688	2.000000562946	0.005
5	688	2.000000562946	0.055
5	701	2.000000605346	0.005005
5	701	2.000000605346	0.005005
5	804	3	5e-06
5	804	3	0.075005
5	811	3.0000000424	0.005005
5	811	3.0000000424	0.005005
5	817	3.0000000424	5e-06
5	817	3.0000000424	0.075005
5	818	3.0000000848	0.005005
5	818	3.0000000848	0.005005
5	820	3.0000000848	5e-06
5	820	3.0000000848	0.075005
5	821	3.0000001272	0.005005
5	821	3.0000001272	0.005005
5	823	3.000000134338	0.005
5	823	3.000000134338	0.055
5	826	3.000000176738	0.005005
5	826	3.000000176738	0.005005
5	836	3.000000223603	0.005
5	836	3.000000223603	0.055
5	844	3.000000266003	0.005005
5	844	3.000000266003	0.005005
5	850	3.00000028202	0.005
5	850	3.00000028202	0.055
5	861	3.00000032442	0.005005
5	861	3.00000032442	0.005005
5	905	3.000000642792	0.005
5	905	3.000000642792	0.055
5	908	3.000000685192	0.005005
5	908	3.000000685192	0.005005
5	952	3.000001412784	0.005
5	952	3.000001412784	0.055
5	953	3.000001455184	0.005005
5	953	3.000001455184	0.005005
5	961	3.000001639317	0.005
5	961	3.000001639317	0.055
5	966	3.000001681717	0.005005
5	966	3.000001681717	0.005005
5	994	3.000002587394	0.005
5	994	3.000002587394	0.055
5	995	3.000002629794	0.005005
5	995	3.000002629794	0.005005
5	1094	4	5e-06
5	1094	4	0.075005
5	1099	4.0000000424	0.005005
5	1099	4.0000000424	0.005005
5	1107	4.0000000424	5e-06
5	1107	4.0000000424	0.075005
5	1110	4.0000000848	0.005005
5	1110	4.0000000848	0.005005
5	1114	4.0000000848	5e-06
5	1114	4.0000000848	0.075005
5	1115	4.0000001272	0.005005
5	1115	4.0000001272	0.005005
5	1126	4.000000198031	0.005
5	1126	4.000000198031	0.055
5	1130	4.000000240431	0.005005
5	1130	4.000000240431	0.005005
5	1136	4.000000270599	0.005
5	1136	4.000000270599	0.055
5	1143	4.000000312999	0.005005
5	1143	4.000000312999	0.005005
5	1151	4.000000314425	0.005
5	1151	4.000000314425	0.055
5	1167	4.000000356825	0.0051
5	1167	4.000000356825	0.0051
5	1180	4.000000399225	0.005005
5	1245	4.000000779126	0.005
5	1245	4.000000779126	0.055
5	1250	4.000000821526	0.005005
5	1250	4.000000821526	0.005005
5	1259	4.000000821526	5e-06
5	1259	4.000000821526	0.075005
5	1263	4.000000863926	0.005005
5	1263	4.000000863926	0.005005
5	1293	4.000001084911	0.005
5	1293	4.000001084911	0.055
5	1299	4.000001127311	0.005005
5	1299	4.000001127311	0.005005
5	1312	4.00000121308	0.005
5	1312	4.00000121308	0.055
5	1314	4.00000125548	0.005005
5	1314	4.00000125548	0.005005
5	1430	5	5e-06
5	1430	5	0.075005
5	1436	5.0000000424	0.005005
5	1436	5.0000000424	0.005005
5	1443	5.0000000424	5e-06
5	1443	5.0000000424	0.075005
5	1446	5.0000000848	0.005005
5	1446	5.0000000848	0.005005
5	1450	5.0000000848	5e-06
5	1450	5.0000000848	0.075005
5	1451	5.0000001272	0.005005
5	1451	5.0000001272	0.005005
5	1471	5.000000397001	0.005
5	1471	5.000000397001	0.055
5	1477	5.000000439401	0.0051
5	1477	5.000000439401	0.0051
5	1497	5.000000481801	0.005005
5	1597	5.000000962916	0.005
5	1597	5.000000962916	0.055
5	1605	5.000001005316	0.0051
5	1605	5.000001005316	0.0051
5	1610	5.000001012228	0.005005
5	1629	5.000001059285	0.005
5	1629	5.000001059285	0.055
5	1638	5.000001101685	0.005005
5	1638	5.000001101685	0.005005
5	1657	5.000001328561	0.005
5	1657	5.000001328561	0.055
5	1665	5.000001370961	0.005005
5	1665	5.000001370961	0.005005
5	1680	5.00000142493	0.005
5	1680	5.00000142493	0.055
5	1690	5.00000146733	0.0051
5	1690	5.00000146733	0.0051
5	1693	5.000001473887	0.005005
5	1806	6	5e-06
5	1806	6	0.075005
5	1813	6.0000000424	0.005005
5	1813	6.0000000424	0.005005
5	1821	6.0000000424	5e-06
5	1821	6.0000000424	0.075005
5	1824	6.0000000848	0.005005
5	1824	6.0000000848	0.005005
5	1828	6.0000000848	5e-06
5	1828	6.0000000848	0.075005
5	1829	6.0000001272	0.005005
5	1829	6.0000001272	0.005005
5	1849	6.000000354363	0.005
5	1849	6.000000354363	0.055
5	1852	6.000000396763	0.005005
5	1852	6.000000396763	0.005005
5	1858	6.000000415257	0.005
5	1858	6.000000415257	0.055
5	1864	6.000000457657	0.0051
5	1864	6.000000457657	0.0051
5	1878	6.000000500057	0.005005
5	1884	6.00000054238	0.005
5	1884	6.00000054238	0.055
5	1901	6.00000058478	0.005005
5	1901	6.00000058478	0.005005
5	1913	6.00000058478	5e-06
5	1913	6.00000058478	0.075005
5	1947	6.00000062718	0.005005
5	1947	6.00000062718	0.005005
5	1986	6.000001023154	0.005
5	1986	6.000001023154	0.055
5	1995	6.000001065554	0.005005
5	1995	6.000001065554	0.005005
5	2032	6.000001335906	0.005
5	2032	6.000001335906	0.055
5	2033	6.000001378306	0.005005
5	2033	6.000001378306	0.005005
5	2045	6.000001702584	0.005
5	2045	6.000001702584	0.055
5	2056	6.000001744984	0.005005
5	2056	6.000001744984	0.005005
5	2066	6.000002127768	0.005
5	2066	6.000002127768	0.055
5	2067	6.000002170168	0.005005
5	2067	6.000002170168	0.005005
5	2184	7	5e-06
5	2184	7	0.075005
5	2193	7.0000000424	0.005005
5	2193	7.0000000424	0.005005
5	2202	7.0000000424	5e-06
5	2202	7.0000000424	0.075005
5	2206	7.0000000848	0.005005
5	2206	7.0000000848	0.005005
5	2233	7.000000438286	0.005
5	2233	7.000000438286	0.055
5	2239	7.000000480686	0.0051
5	2239	7.000000480686	0.0051
5	2254	7.000000523086	0.005005
5	2320	7.000001110591	0.005
5	2320	7.000001110591	0.055
5	2323	7.000001152991	0.005005
5	2323	7.000001152991	0.005005
5	2447	8	5e-06
5	2447	8	0.075005
5	2456	8.0000000424	0.005005
5	2456	8.0000000424	0.005005
5	2465	8.0000000424	5e-06
5	2465	8.0000000424	0.075005
5	2469	8.0000000848	0.005005
5	2469	8.0000000848	0.005005
5	2496	8.000000471799	0.005
5	2496	8.000000471799	0.055
5	2500	8.000000514199	0.0051
5	2500	8.000000514199	0.0051
5	2524	8.000000514199	0.0001
5	2524	8.000000514199	0.0751
5	2528	8.000000556599	0.075005
5	2530	8.000000556599	0.005005
5	2530	8.000000556599	0.005005
5	2532	8.000000557073	0.005
5	2532	8.000000557073	0.055
5	2537	8.000000599473	0.005005
5	2537	8.000000599473	0.005005
5	2585	8.000000985998	0.005
5	2585	8.000000985998	0.055
5	2590	8.000001028398	0.005005
5	2590	8.000001028398	0.005005
5	2641	8.000001670745	0.005
5	2641	8.000001670745	0.055
5	2642	8.000001713145	0.005005
5	2642	8.000001713145	0.005005
5	2751	9	5e-06
5	2751	9	0.075005
5	2760	9.0000000424	0.005005
5	2760	9.0000000424	0.005005
5	2769	9.0000000424	5e-06
5	2769	9.0000000424	0.075005
5	2773	9.0000000848	0.005005
5	2773	9.0000000848	0.005005
5	2812	9.000000557085	0.005
5	2812	9.000000557085	0.055
5	2824	9.000000599485	0.0051
5	2824	9.000000599485	0.0051
5	2836	9.000000599485	0.0001
5	2836	9.000000599485	0.0751
5	2841	9.000000641885	0.075005
5	2842	9.000000641885	0.005005
5	2842	9.000000641885	0.005005
5	2887	9.000001067515	0.005
5	2887	9.000001067515	0.055
5	2894	9.000001109915	0.005005
5	2894	9.000001109915	0.005005
5	3023	10	5e-06
5	3023	10	0.075005
5	3032	10.0000000424	0.005005
5	3032	10.0000000424	0.005005
5	3041	10.0000000424	5e-06
5	3041	10.0000000424	0.075005
5	3045	10.0000000848	0.005005
5	3045	10.0000000848	0.005005
5	3080	10.000000647994	0.005
5	3080	10.000000647994	0.055
5	3084	10.000000690394	0.0051
5	3084	10.000000690394	0.0051
5	3108	10.000000690394	0.0001
5	3108	10.000000690394	0.0751
5	3112	10.000000732794	0.075005
5	3114	10.000000732794	0.005005
5	3114	10.000000732794	0.005005
5	3163	10.000001338388	0.005
5	3163	10.000001338388	0.055
5	3165	10.000001380788	0.005005
5	3165	10.000001380788	0.005005
5	3292	11	5e-06
5	3292	11	0.075005
5	3301	11.0000000424	0.005005
5	3301	11.0000000424	0.005005
5	3310	11.0000000424	5e-06
5	3310	11.0000000424	0.075005
5	3314	11.0000000848	0.005005
5	3314	11.0000000848	0.005005
5	3496	12	5e-06
5	3496	12	0.075005
5	3505	12.0000000424	0.005005
5	3505	12.0000000424	0.005005
5	3514	12.0000000424	5e-06
5	3514	12.0000000424	0.075005
5	3518	12.0000000848	0.005005
5	3518	12.0000000848	0.005005
5	3701	13	5e-06
5	3701	13	0.075005
5	3710	13.0000000424	0.005005
5	3710	13.0000000424	0.005005
5	3719	13.0000000424	5e-06
5	3719	13.0000000424	0.075005
5	3723	13.0000000848	0.005005
5	3723	13.0000000848	0.005005
5	3905	14	5e-06
5	3905	14	0.075005
5	3914	14.0000000424	0.005005
5	3914	14.0000000424	0.005005
5	3923	14.0000000424	5e-06
5	3923	14.0000000424	0.075005
5	3927	14.0000000848	0.005005
5	3927	14.0000000848	0.005005
5	4111	15	5e-06
5	4111	15	0.075005
5	4120	15.0000000424	0.005005
5	4120	15.0000000424	0.005005
5	4129	15.0000000424	5e-06
5	4129	15.0000000424	0.075005
5	4133	15.0000000848	0.005005
5	4133	15.0000000848	0.005005
5	4315	16	5e-06
5	4315	16	0.075005
5	4324	16.0000000424	0.005005
5	4324	16.0000000424	0.005005
5	4333	16.0000000424	5e-06
5	4333	16.0000000424	0.075005
5	4337	16.0000000848	0.005005
5	4337	16.0000000848	0.005005
5	4519	17	5e-06
5	4519	17	0.075005
5	4528	17.0000000424	0.005005
5	4528	17.0000000424	0.005005
5	4537	17.0000000424	5e-06
5	4537	17.0000000424	0.075005
5	4541	17.0000000848	0.005005
5	4541	17.0000000848	0.005005
5	4723	18	5e-06
5	4723	18	0.075005
5	4732	18.0000000424	0.005005
5	4732	18.0000000424	0.005005
5	4741	18.0000000424	5e-06
5	4741	18.0000000424	0.075005
5	4745	18.0000000848	0.005005
5	4745	18.0000000848	0.005005
5	4927	19	5e-06
5	4927	19	0.075005
5	4936	19.0000000424	0.005005
5	4936	19.0000000424	0.005005
5	4945	19.0000000424	5e-06
5	4945	19.0000000424	0.075005
5	4949	19.0000000848	0.005005
5	4949	19.0000000848	0.005005
5	5132	20	5e-06
5	5132	20	0.075005
5	5141	20.0000000424	0.005005
5	5141	20.0000000424	0.005005
5	5150	20.0000000424	5e-06
5	5150	20.0000000424	0.075005
5	5154	20.0000000848	0.005005
5	5154	20.0000000848	0.005005
5	5337	21	5e-06
5	5337	21	0.075005
5	5346	21.0000000424	0.005005
5	5346	21.0000000424	0.005005
5	5355	21.0000000424	5e-06
5	5355	21.0000000424	0.075005
5	5359	21.0000000848	0.005005
5	5359	21.0000000848	0.005005
5	5540	22	5e-06
5	5540	22	0.075005
5	5549	22.0000000424	0.005005
5	5549	22.0000000424	0.005005
5	5558	22.0000000424	5e-06
5	5558	22.0000000424	0.075005
5	5562	22.0000000848	0.005005
5	5562	22.0000000848	0.005005
5	5743	23	5e-06
5	5743	23	0.075005
5	5752	23.0000000424	0.005005
5	5752	23.0000000424	0.005005
5	5761	23.0000000424	5e-06
5	5761	23.0000000424	0.075005
5	5765	23.0000000848	0.005005
5	5765	23.0000000848	0.005005
5	5946	24	5e-06
5	5946	24	0.075005
5	5955	24.0000000424	0.005005
5	5955	24.0000000424	0.005005
5	5964	24.0000000424	5e-06
5	5964	24.0000000424	0.075005
5	5968	24.0000000848	0.005005
5	5968	24.0000000848	0.005005
5	6147	25	5e-06
5	6147	25	0.075005
5	6158	25.0000000424	0.005005
5	6158	25.0000000424	0.005005
5	6167	25.0000000424	5e-06
5	6167	25.0000000424	0.075005
5	6178	25.0000000848	0.005005
5	6178	25.0000000848	0.005005
5	6350	26	5e-06
5	6350	26	0.075005
5	6359	26.0000000424	0.005005
5	6359	26.0000000424	0.005005
5	6368	26.0000000424	5e-06
5	6368	26.0000000424	0.075005
5	6372	26.0000000848	0.005005
5	6372	26.0000000848	0.005005
5	6550	27	5e-06
5	6550	27	0.075005
5	6559	27.0000000424	0.005005
5	6559	27.0000000424	0.005005
5	6568	27.0000000424	5e-06
5	6568	27.0000000424	0.075005
5	6572	27.0000000848	0.005005
5	6572	27.0000000848	0.005005
5	6756	28	5e-06
5	6756	28	0.075005
5	6765	28.0000000424	0.005005
5	6765	28.0000000424	0.005005
5	6774	28.0000000424	5e-06
5	6774	28.0000000424	0.075005
5	6778	28.0000000848	0.005005
5	6778	28.0000000848	0.005005
5	6793	28.000000579939	0.005
5	6793	28.000000579939	0.055
5	6799	28.000000622339	0.0051
5	6799	28.000000622339	0.0051
5	6823	28.000000622339	0.0001
5	6823	28.000000622339	0.0751
5	6835	28.000000664739	0.075005
5	6837	28.000000664739	0.005005
5	6837	28.000000664739	0.005005
5	6862	28.000001202278	0.005
5	6862	28.000001202278	0.055
5	6864	28.000001244678	0.005005
5	6864	28.000001244678	0.005005
5	7014	29	5e-06
5	7014	29	0.075005
5	7023	29.0000000424	0.005005
5	7023	29.0000000424	0.005005
5	7032	29.0000000424	5e-06
5	7032	29.0000000424	0.075005
5	7036	29.0000000848	0.005005
5	7036	29.0000000848	0.005005
5	7052	29.000000553898	0.005
5	7052	29.000000553898	0.055
5	7065	29.000000596298	0.0051
5	7065	29.000000596298	0.0051
5	7089	29.000000596298	0.0001
5	7089	29.000000596298	0.0751
5	7095	29.000000638698	0.075005
5	7097	29.000000638698	0.005005
5	7097	29.000000638698	0.005005
5	7120	29.000001150196	0.005
5	7120	29.000001150196	0.055
5	7122	29.000001192596	0.005005
5	7122	29.000001192596	0.005005
5	7272	30	5e-06
5	7272	30	0.075005
5	7281	30.0000000424	0.005005
5	7281	30.0000000424	0.005005
5	7290	30.0000000424	5e-06
5	7290	30.0000000424	0.075005
5	7294	30.0000000848	0.005005
5	7294	30.0000000848	0.005005
5	7303	30.00000052865	0.005
5	7303	30.00000052865	0.055
5	7320	30.00000057105	0.0051
5	7320	30.00000057105	0.0051
5	7344	30.00000057105	0.0001
5	7344	30.00000057105	0.0751
5	7353	30.00000061345	0.075005
5	7355	30.00000061345	0.005005
5	7355	30.00000061345	0.005005
5	7378	30.0000010997	0.005
5	7378	30.0000010997	0.055
5	7380	30.0000011421	0.005005
5	7380	30.0000011421	0.005005
5	7530	31	5e-06
5	7530	31	0.075005
5	7539	31.0000000424	0.005005
5	7539	31.0000000424	0.005005
5	7548	31.0000000424	5e-06
5	7548	31.0000000424	0.075005
5	7552	31.0000000848	0.005005
5	7552	31.0000000848	0.005005
5	7557	31.000000482089	0.005
5	7557	31.000000482089	0.055
5	7565	31.000000524489	0.0051
5	7565	31.000000524489	0.0051
5	7589	31.000000524489	0.0001
5	7589	31.000000524489	0.0751
5	7606	31.000000566889	0.075005
5	7608	31.000000566889	0.005005
5	7608	31.000000566889	0.005005
5	7628	31.000001006578	0.005
5	7628	31.000001006578	0.055
5	7635	31.000001048978	0.005005
5	7635	31.000001048978	0.005005
5	7785	32	5e-06
5	7785	32	0.075005
5	7794	32.0000000424	0.005005
5	7794	32.0000000424	0.005005
5	7803	32.0000000424	5e-06
5	7803	32.0000000424	0.075005
5	7807	32.0000000848	0.005005
5	7807	32.0000000848	0.005005
5	7812	32.000000382129	0.005
5	7812	32.000000382129	0.055
5	7816	32.000000424529	0.0051
5	7816	32.000000424529	0.0051
5	7828	32.000000466929	0.005005
5	7998	33	5e-06
5	7998	33	0.075005
5	8007	33.0000000424	0.005005
5	8007	33.0000000424	0.005005
5	8016	33.0000000424	5e-06
5	8016	33.0000000424	0.075005
5	8020	33.0000000848	0.005005
5	8020	33.0000000848	0.005005
5	8025	33.000000340863	0.005
5	8025	33.000000340863	0.055
5	8029	33.000000383263	0.0051
5	8029	33.000000383263	0.0051
5	8039	33.000000425663	0.005005
5	8061	33.000000615473	0.005
5	8061	33.000000615473	0.055
5	8065	33.000000657873	0.0051
5	8065	33.000000657873	0.0051
5	8071	33.000000700273	0.005005
5	8214	34	5e-06
5	8214	34	0.075005
5	8223	34.0000000424	0.005005
5	8223	34.0000000424	0.005005
5	8232	34.0000000424	5e-06
5	8232	34.0000000424	0.075005
5	8236	34.0000000848	0.005005
5	8236	34.0000000848	0.005005
5	8241	34.000000294848	0.005
5	8241	34.000000294848	0.055
5	8245	34.000000337248	0.0051
5	8245	34.000000337248	0.0051
5	8255	34.000000379648	0.005005
5	8279	34.000000573111	0.005
5	8279	34.000000573111	0.055
5	8283	34.000000615511	0.0051
5	8283	34.000000615511	0.0051
5	8289	34.000000657911	0.005005
5	8430	35	5e-06
5	8430	35	0.075005
5	8439	35.0000000424	0.005005
5	8439	35.0000000424	0.005005
5	8448	35.0000000424	5e-06
5	8448	35.0000000424	0.075005
5	8452	35.0000000848	0.005005
5	8452	35.0000000848	0.005005
5	8457	35.000000240026	0.005
5	8457	35.000000240026	0.055
5	8461	35.000000282426	0.0051
5	8461	35.000000282426	0.0051
5	8471	35.000000324826	0.005005
5	8495	35.000000621002	0.005
5	8495	35.000000621002	0.055
5	8499	35.000000663402	0.0051
5	8499	35.000000663402	0.0051
5	8505	35.000000705802	0.005005
5	8648	36	5e-06
5	8648	36	0.075005
5	8657	36.0000000424	0.005005
5	8657	36.0000000424	0.005005
5	8666	36.0000000424	5e-06
5	8666	36.0000000424	0.075005
5	8670	36.0000000848	0.005005
5	8670	36.0000000848	0.005005
5	8675	36.000000164839	0.005
5	8675	36.000000164839	0.055
5	8679	36.000000207239	0.0051
5	8679	36.000000207239	0.0051
5	8689	36.000000249639	0.005005
5	8861	37	5e-06
5	8861	37	0.075005
5	8870	37.0000000424	0.005005
5	8870	37.0000000424	0.005005
[...]
93	32023	119.000000563669	40
93	32075	119.000000833443	40
93	32388	120.000000521857	40
93	32448	120.000000871077	40
93	35271	129.000000641646	40
93	36185	132.000000522567	40
93	36548	133.000000569247	40
93	36600	133.000000716978	40
93	36911	134.000000614509	40
93	37239	135.000000638048	40
93	37264	135.000000715325	40
93	43799	158.000000671323	40
93	44147	159.000000604281	40
93	44471	160.000000559645	40
93	44795	161.000000610228	40
94	1524	5.000000565915	40
94	1533	5.000000565915	40
94	1539	5.000000565915	40
94	1794	6	40
94	1938	6.000000607897	40
94	2170	7	40
94	2284	7.000000672305	40
94	2433	8	40
94	2513	8.000000514199	40
94	2737	9	40
94	2800	9.00000051043	40
94	3009	10	40
94	3097	10.000000690394	40
94	3278	11	40
94	3482	12	40
94	3687	13	40
94	3891	14	40
94	4097	15	40
94	4301	16	40
94	4505	17	40
94	4709	18	40
94	4913	19	40
94	5118	20	40
94	5323	21	40
94	5526	22	40
94	5729	23	40
94	5932	24	40
94	6133	25	40
94	6336	26	40
94	6536	27	40
94	6742	28	40
94	6812	28.000000622339	40
94	7000	29	40
94	7078	29.000000596298	40
94	7258	30	40
94	7333	30.00000057105	40
94	7516	31	40
94	7578	31.000000524489	40
94	7771	32	40
94	7984	33	40
94	8200	34	40
94	8416	35	40
94	8634	36	40
94	8847	37	40
94	9058	38	40
94	9272	39	40
94	9487	40	40
94	9698	41	40
94	9758	41.000000524819	40
94	9790	41.000000593132	40
94	9987	42	40
94	10057	42.000000601259	40
94	10246	43	40
94	10445	44	40
94	10647	45	40
94	10846	46	40
94	11099	47	40
94	11377	48	40
94	11611	49	40
94	11819	50	40
94	12028	51	40
94	12240	52	40
94	12448	53	40
94	12661	54	40
94	12912	55	40
94	13164	56	40
94	13415	57	40
94	13667	58	40
94	13919	59	40
94	14170	60	40
94	14266	60.000000692254	40
94	14529	61	40
94	14602	61.000000558148	40
94	14847	62	40
94	15110	63	40
94	15436	64	40
94	15733	65	40
94	16031	66	40
94	16145	66.000000605182	40
94	16336	67	40
94	16474	67.000000641939	40
94	16698	68	40
94	17043	69	40
94	17353	70	40
94	17461	70.000000558758	40
94	17718	71	40
94	17864	71.00000065642	40
94	18105	72	40
94	18383	73	40
94	18663	74	40
94	18940	75	40
94	19273	76	40
94	19573	77	40
94	19871	78	40
94	20174	79	40
94	20441	80	40
94	20707	81	40
94	20971	82	40
94	21232	83	40
94	21493	84	40
94	21749	85	40
94	21838	85.000000659468	40
94	22030	86	40
94	22119	86.000000705104	40
94	22312	87	40
94	22401	87.000000726446	40
94	22593	88	40
94	22682	88.000000695568	40
94	22875	89	40
94	22964	89.000000634075	40
94	23155	90	40
94	23244	90.000000597879	40
94	23436	91	40
94	23696	92	40
94	23956	93	40
94	24045	93.000000619488	40
94	24240	94	40
94	24329	94.000000633969	40
94	24524	95	40
94	24613	95.000000657988	40
94	24807	96	40
94	24898	96.000000704083	40
94	25092	97	40
94	25187	97.000000755893	40
94	25376	98	40
94	25489	98.000000787992	40
94	25687	99	40
94	25967	100	40
94	26256	101	40
94	26515	102	40
94	26774	103	40
94	27068	104	40
94	27374	105	40
94	27679	106	40
94	28010	107	40
94	28336	108	40
94	28612	109	40
94	28938	110	40
94	29211	111	40
94	29513	112	40
94	29817	113	40
94	30138	114	40
94	30405	115	40
94	30580	115.000000785836	40
94	30824	116	40
94	30984	116.000000661351	40
94	31185	117	40
94	31299	117.000000517247	40
94	31579	118	40
94	31909	119	40
94	32274	120	40
94	32645	121	40
94	32933	122	40
94	33220	123	40
94	33572	124	40
94	33893	125	40
94	34250	126	40
94	34566	127	40
94	34853	128	40
94	35139	129	40
94	35239	129.000000515724	40
94	35481	130	40
94	35583	130.000000544107	40
94	35787	131	40
94	35884	131.000000575445	40
94	36111	132	40
94	36209	132.000000623981	40
94	36474	133	40
94	36574	133.000000671584	40
94	36837	134	40
94	37144	135	40
94	37476	136	40
94	37755	137	40
94	38028	138	40
94	38124	138.000000648114	40
94	38332	139	40
94	38431	139.000000658246	40
94	38635	140	40
94	38721	140.000000677273	40
94	38930	141	40
94	39016	141.000000651906	40
94	39224	142	40
94	39310	142.000000630451	40
94	39520	143	40
94	39606	143.000000635579	40
94	39817	144	40
94	39903	144.000000671973	40
94	40111	145	40
94	40379	146	40
94	40645	147	40
94	40911	148	40
94	41177	149	40
94	41444	150	40
94	41709	151	40
94	41975	152	40
94	42241	153	40
94	42506	154	40
94	42773	155	40
94	43084	156	40
94	43184	156.000000573411	40
94	43398	157	40
94	43683	158	40
94	44035	159	40
94	44357	160	40
94	44677	161	40
94	44996	162	40
94	45279	163	40
94	45587	164	40
94	45693	164.00000061752	40
94	45933	165	40
94	46206	166	40
94	46476	167	40
94	46743	168	40
94	47009	169	40
94	47314	170	40
94	47619	171	40
94	47925	172	40
94	48203	173	40
94	48483	174	40
94	48759	175	40
95	1524	5.000000565915	40
95	1533	5.000000565915	40
95	1539	5.000000565915	40
95	1794	6	40
95	1938	6.000000607897	40
95	2170	7	40
95	2284	7.000000672305	40
95	2433	8	40
95	2513	8.000000514199	40
95	2737	9	40
95	2800	9.00000051043	40
95	3009	10	40
95	3097	10.000000690394	40
95	3278	11	40
95	3482	12	40
95	3687	13	40
95	3891	14	40
95	4097	15	40
95	4301	16	40
95	4505	17	40
95	4709	18	40
95	4913	19	40
95	5118	20	40
95	5323	21	40
95	5526	22	40
95	5729	23	40
95	5932	24	40
95	6133	25	40
95	6336	26	40
95	6536	27	40
95	6742	28	40
95	6812	28.000000622339	40
95	7000	29	40
95	7078	29.000000596298	40
95	7258	30	40
95	7333	30.00000057105	40
95	7516	31	40
95	7578	31.000000524489	40
95	7771	32	40
95	7984	33	40
95	8200	34	40
95	8416	35	40
95	8634	36	40
95	8847	37	40
95	9058	38	40
95	9272	39	40
95	9487	40	40
95	9698	41	40
95	9758	41.000000524819	40
95	9790	41.000000593132	40
95	9987	42	40
95	10057	42.000000601259	40
95	10246	43	40
95	10445	44	40
95	10647	45	40
95	10846	46	40
95	11099	47	40
95	11377	48	40
95	11611	49	40
95	11819	50	40
95	12028	51	40
95	12240	52	40
95	12448	53	40
95	12661	54	40
95	12912	55	40
95	13164	56	40
95	13415	57	40
95	13667	58	40
95	13919	59	40
95	14170	60	40
95	14266	60.000000692254	40
95	14529	61	40
95	14602	61.000000558148	40
95	14847	62	40
95	15110	63	40
95	15436	64	40
95	15733	65	40
95	16031	66	40
95	16145	66.000000605182	40
95	16336	67	40
95	16474	67.000000641939	40
95	16698	68	40
95	17043	69	40
95	17353	70	40
95	17461	70.000000558758	40
95	17718	71	40
95	17864	71.00000065642	40
95	18105	72	40
95	18383	73	40
95	18663	74	40
95	18940	75	40
95	19273	76	40
95	19573	77	40
95	19871	78	40
95	20174	79	40
95	20441	80	40
95	20707	81	40
95	20971	82	40
95	21232	83	40
95	21493	84	40
95	21749	85	40
95	21838	85.000000659468	40
95	22030	86	40
95	22119	86.000000705104	40
95	22312	87	40
95	22401	87.000000726446	40
95	22593	88	40
95	22682	88.000000695568	40
95	22875	89	40
95	22964	89.000000634075	40
95	23155	90	40
95	23244	90.000000597879	40
95	23436	91	40
95	23696	92	40
95	23956	93	40
95	24045	93.000000619488	40
95	24240	94	40
95	24329	94.000000633969	40
95	24524	95	40
95	24613	95.000000657988	40
95	24807	96	40
95	24898	96.000000704083	40
95	25092	97	40
95	25187	97.000000755893	40
95	25376	98	40
95	25489	98.000000787992	40
95	25687	99	40
95	25967	100	40
95	26256	101	40
95	26515	102	40
95	26774	103	40
95	27068	104	40
95	27374	105	40
95	27679	106	40
95	28010	107	40
95	28336	108	40
95	28612	109	40
95	28938	110	40
95	29211	111	40
95	29513	112	40
95	29817	113	40
95	30138	114	40
95	30405	115	40
95	30580	115.000000785836	40
95	30824	116	40
95	30984	116.000000661351	40
95	31185	117	40
95	31299	117.000000517247	40
95	31579	118	40
95	31909	119	40
95	32274	120	40
95	32645	121	40
95	32933	122	40
95	33220	123	40
95	33572	124	40
95	33893	125	40
95	34250	126	40
95	34566	127	40
95	34853	128	40
95	35139	129	40
95	35239	129.000000515724	40
95	35481	130	40
95	35583	130.000000544107	40
95	35787	131	40
95	35884	131.000000575445	40
95	36111	132	40
95	36209	132.000000623981	40
95	36474	133	40
95	36574	133.000000671584	40
95	36837	134	40
95	37144	135	40
95	37476	136	40
95	37755	137	40
95	38028	138	40
95	38124	138.000000648114	40
95	38332	139	40
95	38431	139.000000658246	40
95	38635	140	40
95	38721	140.000000677273	40
95	38930	141	40
95	39016	141.000000651906	40
95	39224	142	40
95	39310	142.000000630451	40
95	39520	143	40
95	39606	143.000000635579	40
95	39817	144	40
95	39903	144.000000671973	40
95	40111	145	40
95	40379	146	40
95	40645	147	40
95	40911	148	40
95	41177	149	40
95	41444	150	40
95	41709	151	40
95	41975	152	40
95	42241	153	40
95	42506	154	40
95	42773	155	40
95	43084	156	40
95	43184	156.000000573411	40
95	43398	157	40
95	43683	158	40
95	44035	159	40
95	44357	160	40
95	44677	161	40
95	44996	162	40
95	45279	163	40
95	45587	164	40
95	45693	164.00000061752	40
95	45933	165	40
95	46206	166	40
95	46476	167	40
95	46743	168	40
95	47009	169	40
95	47314	170	40
95	47619	171	40
95	47925	172	40
95	48203	173	40
95	48483	174	40
95	48759	175	40
96	1908	6.00000058478	40
96	1917	6.00000058478	40
96	1923	6.00000058478	40
96	2168	7	40
96	2431	8	40
96	2515	8.000000514199	40
96	2735	9	40
96	2831	9.000000599485	40
96	3007	10	40
96	3099	10.000000690394	40
96	3276	11	40
96	3480	12	40
96	3685	13	40
96	3889	14	40
96	4095	15	40
96	4299	16	40
96	4503	17	40
96	4707	18	40
96	4911	19	40
96	5116	20	40
96	5321	21	40
96	5524	22	40
96	5727	23	40
96	5930	24	40
96	6131	25	40
96	6334	26	40
96	6534	27	40
96	6740	28	40
96	6814	28.000000622339	40
96	6998	29	40
96	7080	29.000000596298	40
96	7256	30	40
96	7335	30.00000057105	40
96	7514	31	40
96	7580	31.000000524489	40
96	7769	32	40
96	7982	33	40
96	8198	34	40
96	8414	35	40
96	8632	36	40
96	8845	37	40
96	9056	38	40
96	9270	39	40
96	9485	40	40
96	9696	41	40
96	9760	41.000000524819	40
96	9985	42	40
96	10059	42.000000601259	40
96	10244	43	40
96	10443	44	40
96	10645	45	40
96	10844	46	40
96	10912	46.000000679511	40
96	11097	47	40
96	11165	47.00000058392	40
96	11375	48	40
96	11609	49	40
96	11817	50	40
96	12026	51	40
96	12238	52	40
96	12446	53	40
96	12659	54	40
96	12727	54.000000533399	40
96	12910	55	40
96	12978	55.000000541402	40
96	13162	56	40
96	13230	56.000000534101	40
96	13413	57	40
96	13481	57.000000530957	40
96	13665	58	40
96	13733	58.000000573003	40
96	13917	59	40
96	13985	59.000000596265	40
96	14168	60	40
96	14236	60.000000590762	40
96	14268	60.000000692254	40
96	14526	61	40
96	14621	61.000000588606	40
96	14648	61.000000647302	40
96	14844	62	40
96	14931	62.000000587205	40
96	15107	63	40
96	15192	63.00000053157	40
96	15216	63.000000607843	40
96	15236	63.000000692643	40
96	15433	64	40
96	15532	64.0000005837	40
96	15560	64.0000006685	40
96	15730	65	40
96	15829	65.000000567791	40
96	15857	65.000000652591	40
96	16028	66	40
96	16115	66.000000533205	40
96	16333	67	40
96	16432	67.000000571288	40
96	16695	68	40
96	16804	68.000000599669	40
96	16830	68.000000652764	40
96	17040	69	40
96	17168	69.00000068353	40
96	17350	70	40
96	17513	70.000000693221	40
96	17715	71	40
96	18102	72	40
96	18380	73	40
96	18660	74	40
96	18937	75	40
96	19270	76	40
96	19570	77	40
96	19868	78	40
96	20171	79	40
96	20438	80	40
96	20704	81	40
96	20968	82	40
96	21229	83	40
96	21490	84	40
96	21746	85	40
96	22027	86	40
96	22309	87	40
96	22590	88	40
96	22872	89	40
96	23152	90	40
96	23433	91	40
96	23693	92	40
96	23953	93	40
96	24237	94	40
96	24521	95	40
96	24804	96	40
96	25089	97	40
96	25373	98	40
96	25684	99	40
96	25964	100	40
96	26253	101	40
96	26512	102	40
96	26771	103	40
96	27065	104	40
96	27187	104.000000683625	40
96	27371	105	40
96	27488	105.000000608731	40
96	27676	106	40
96	27803	106.00000059859	40
96	28007	107	40
96	28096	107.000000527364	40
96	28333	108	40
96	28609	109	40
96	28935	110	40
96	29208	111	40
96	29510	112	40
96	29814	113	40
96	30135	114	40
96	30402	115	40
96	30527	115.000000640507	40
96	30821	116	40
96	31182	117	40
96	31576	118	40
96	31714	118.000000634069	40
96	31906	119	40
96	32271	120	40
96	32642	121	40
96	32930	122	40
96	33217	123	40
96	33346	123.000000520932	40
96	33569	124	40
96	33890	125	40
96	34044	125.000000685118	40
96	34247	126	40
96	34563	127	40
96	34850	128	40
96	35136	129	40
96	35478	130	40
96	35784	131	40
96	36108	132	40
96	36471	133	40
96	36834	134	40
96	37141	135	40
96	37473	136	40
96	37752	137	40
96	38025	138	40
96	38329	139	40
96	38632	140	40
96	38927	141	40
96	39221	142	40
96	39517	143	40
96	39814	144	40
96	40108	145	40
96	40376	146	40
96	40642	147	40
96	40908	148	40
96	41174	149	40
96	41441	150	40
96	41706	151	40
96	41972	152	40
96	42238	153	40
96	42503	154	40
96	42770	155	40
96	42861	155.000000642384	40
96	43081	156	40
96	43395	157	40
96	43680	158	40
96	44032	159	40
96	44354	160	40
96	44674	161	40
96	44993	162	40
96	45276	163	40
96	45381	163.000000520733	40
96	45584	164	40
96	45710	164.000000636245	40
96	45930	165	40
96	46203	166	40
96	46473	167	40
96	46740	168	40
96	47006	169	40
96	47107	169.000000703571	40
96	47311	170	40
96	47412	170.000000701583	40
96	47616	171	40
96	47707	171.000000581422	40
96	47922	172	40
96	48200	173	40
96	48480	174	40
96	48756	175	40
97	1908	6.00000058478	40
97	1917	6.00000058478	40
97	1923	6.00000058478	40
97	2168	7	40
97	2431	8	40
97	2515	8.000000514199	40
97	2735	9	40
97	2831	9.000000599485	40
97	3007	10	40
97	3099	10.000000690394	40
97	3276	11	40
97	3480	12	40
97	3685	13	40
97	3889	14	40
97	4095	15	40
97	4299	16	40
97	4503	17	40
97	4707	18	40
97	4911	19	40
97	5116	20	40
97	5321	21	40
97	5524	22	40
97	5727	23	40
97	5930	24	40
97	6131	25	40
97	6334	26	40
97	6534	27	40
97	6740	28	40
97	6814	28.000000622339	40
97	6998	29	40
97	7080	29.000000596298	40
97	7256	30	40
97	7335	30.00000057105	40
97	7514	31	40
97	7580	31.000000524489	40
97	7769	32	40
97	7982	33	40
97	8198	34	40
97	8414	35	40
97	8632	36	40
97	8845	37	40
97	9056	38	40
97	9270	39	40
97	9485	40	40
97	9696	41	40
97	9760	41.000000524819	40
97	9985	42	40
97	10059	42.000000601259	40
97	10244	43	40
97	10443	44	40
97	10645	45	40
97	10844	46	40
97	10912	46.000000679511	40
97	11097	47	40
97	11165	47.00000058392	40
97	11375	48	40
97	11609	49	40
97	11817	50	40
97	12026	51	40
97	12238	52	40
97	12446	53	40
97	12659	54	40
97	12727	54.000000533399	40
97	12910	55	40
97	12978	55.000000541402	40
97	13162	56	40
97	13230	56.000000534101	40
97	13413	57	40
97	13481	57.000000530957	40
97	13665	58	40
97	13733	58.000000573003	40
97	13917	59	40
97	13985	59.000000596265	40
97	14168	60	40
97	14236	60.000000590762	40
97	14268	60.000000692254	40
97	14526	61	40
97	14621	61.000000588606	40
97	14648	61.000000647302	40
97	14844	62	40
97	14931	62.000000587205	40
97	15107	63	40
97	15192	63.00000053157	40
97	15216	63.000000607843	40
97	15236	63.000000692643	40
97	15433	64	40
97	15532	64.0000005837	40
97	15560	64.0000006685	40
97	15730	65	40
97	15829	65.000000567791	40
97	15857	65.000000652591	40
97	16028	66	40
97	16115	66.000000533205	40
97	16333	67	40
97	16432	67.000000571288	40
97	16695	68	40
97	16804	68.000000599669	40
97	16830	68.000000652764	40
97	17040	69	40
97	17168	69.00000068353	40
97	17350	70	40
97	17513	70.000000693221	40
97	17715	71	40
97	18102	72	40
97	18380	73	40
97	18660	74	40
97	18937	75	40
97	19270	76	40
97	19570	77	40
97	19868	78	40
97	20171	79	40
97	20438	80	40
97	20704	81	40
97	20968	82	40
97	21229	83	40
97	21490	84	40
97	21746	85	40
97	22027	86	40
97	22309	87	40
97	22590	88	40
97	22872	89	40
97	23152	90	40
97	23433	91	40
97	23693	92	40
97	23953	93	40
97	24237	94	40
97	24521	95	40
97	24804	96	40
97	25089	97	40
97	25373	98	40
97	25684	99	40
97	25964	100	40
97	26253	101	40
97	26512	102	40
97	26771	103	40
97	27065	104	40
97	27187	104.000000683625	40
97	27371	105	40
97	27488	105.000000608731	40
97	27676	106	40
97	27803	106.00000059859	40
97	28007	107	40
97	28096	107.000000527364	40
97	28333	108	40
97	28609	109	40
97	28935	110	40
97	29208	111	40
97	29510	112	40
97	29814	113	40
97	30135	114	40
97	30402	115	40
97	30527	115.000000640507	40
97	30821	116	40
97	31182	117	40
97	31576	118	40
97	31714	118.000000634069	40
97	31906	119	40
97	32271	120	40
97	32642	121	40
97	32930	122	40
97	33217	123	40
97	33346	123.000000520932	40
97	33569	124	40
97	33890	125	40
97	34044	125.000000685118	40
97	34247	126	40
97	34563	127	40
97	34850	128	40
97	35136	129	40
97	35478	130	40
97	35784	131	40
97	36108	132	40
97	36471	133	40
97	36834	134	40
97	37141	135	40
97	37473	136	40
97	37752	137	40
97	38025	138	40
97	38329	139	40
97	38632	140	40
97	38927	141	40
97	39221	142	40
97	39517	143	40
97	39814	144	40
97	40108	145	40
97	40376	146	40
97	40642	147	40
97	40908	148	40
97	41174	149	40
97	41441	150	40
97	41706	151	40
97	41972	152	40
97	42238	153	40
97	42503	154	40
97	42770	155	40
97	42861	155.000000642384	40
97	43081	156	40
97	43395	157	40
97	43680	158	40
97	44032	159	40
97	44354	160	40
97	44674	161	40
97	44993	162	40
97	45276	163	40
97	45381	163.000000520733	40
97	45584	164	40
97	45710	164.000000636245	40
97	45930	165	40
97	46203	166	40
97	46473	167	40
97	46740	168	40
97	47006	169	40
97	47107	169.000000703571	40
97	47311	170	40
97	47412	170.000000701583	40
97	47616	171	40
97	47707	171.000000581422	40
97	47922	172	40
97	48200	173	40
97	48480	174	40
97	48756	175	40
98	16472	67.000000641939	40
98	16488	67.000000641939	40
98	16494	67.000000641939	40
98	16702	68	40
98	17047	69	40
98	17357	70	40
98	17722	71	40
98	18109	72	40
98	18387	73	40
98	18667	74	40
98	18944	75	40
98	19277	76	40
98	19577	77	40
98	19875	78	40
98	20178	79	40
98	20445	80	40
98	20711	81	40
98	20975	82	40
98	21236	83	40
98	21497	84	40
98	21753	85	40
98	22034	86	40
98	22316	87	40
98	22597	88	40
98	22879	89	40
98	23159	90	40
98	23440	91	40
98	23700	92	40
98	23960	93	40
98	24244	94	40
98	24528	95	40
98	24811	96	40
98	25096	97	40
98	25380	98	40
98	25691	99	40
98	25971	100	40
98	26260	101	40
98	26519	102	40
98	26778	103	40
98	27072	104	40
98	27378	105	40
98	27683	106	40
98	28014	107	40
98	28340	108	40
98	28616	109	40
98	28942	110	40
98	29215	111	40
98	29517	112	40
98	29821	113	40
98	30142	114	40
98	30409	115	40
98	30828	116	40
98	31189	117	40
98	31583	118	40
98	31913	119	40
98	32278	120	40
98	32649	121	40
98	32937	122	40
98	33224	123	40
98	33576	124	40
98	33897	125	40
98	34254	126	40
98	34570	127	40
98	34857	128	40
98	35143	129	40
98	35485	130	40
98	35791	131	40
98	36115	132	40
98	36478	133	40
98	36841	134	40
98	37148	135	40
98	37480	136	40
98	37759	137	40
98	38032	138	40
98	38336	139	40
98	38639	140	40
98	38934	141	40
98	39228	142	40
98	39524	143	40
98	39821	144	40
98	40115	145	40
98	40383	146	40
98	40649	147	40
98	40915	148	40
98	41181	149	40
98	41448	150	40
98	41713	151	40
98	41979	152	40
98	42245	153	40
98	42510	154	40
98	42777	155	40
98	43088	156	40
98	43402	157	40
98	43687	158	40
98	44039	159	40
98	44361	160	40
98	44681	161	40
98	45000	162	40
98	45283	163	40
98	45591	164	40
98	45937	165	40
98	46210	166	40
98	46480	167	40
98	46747	168	40
98	47013	169	40
98	47318	170	40
98	47623	171	40
98	47929	172	40
98	48207	173	40
98	48487	174	40
98	48763	175	40
99	16472	67.000000641939	40
99	16488	67.000000641939	40
99	16494	67.000000641939	40
99	16702	68	40
99	17047	69	40
99	17357	70	40
99	17722	71	40
99	18109	72	40
99	18387	73	40
99	18667	74	40
99	18944	75	40
99	19277	76	40
99	19577	77	40
99	19875	78	40
99	20178	79	40
99	20445	80	40
99	20711	81	40
99	20975	82	40
99	21236	83	40
99	21497	84	40
99	21753	85	40
99	22034	86	40
99	22316	87	40
99	22597	88	40
99	22879	89	40
99	23159	90	40
99	23440	91	40
99	23700	92	40
99	23960	93	40
99	24244	94	40
99	24528	95	40
99	24811	96	40
99	25096	97	40
99	25380	98	40
99	25691	99	40
99	25971	100	40
99	26260	101	40
99	26519	102	40
99	26778	103	40
99	27072	104	40
99	27378	105	40
99	27683	106	40
99	28014	107	40
99	28340	108	40
99	28616	109	40
99	28942	110	40
99	29215	111	40
99	29517	112	40
99	29821	113	40
99	30142	114	40
99	30409	115	40
99	30828	116	40
99	31189	117	40
99	31583	118	40
99	31913	119	40
99	32278	120	40
99	32649	121	40
99	32937	122	40
99	33224	123	40
99	33576	124	40
99	33897	125	40
99	34254	126	40
99	34570	127	40
99	34857	128	40
99	35143	129	40
99	35485	130	40
99	35791	131	40
99	36115	132	40
99	36478	133	40
99	36841	134	40
99	37148	135	40
99	37480	136	40
99	37759	137	40
99	38032	138	40
99	38336	139	40
99	38639	140	40
99	38934	141	40
99	39228	142	40
99	39524	143	40
99	39821	144	40
99	40115	145	40
99	40383	146	40
99	40649	147	40
99	40915	148	40
99	41181	149	40
99	41448	150	40
99	41713	151	40
99	41979	152	40
99	42245	153	40
99	42510	154	40
99	42777	155	40
99	43088	156	40
99	43402	157	40
99	43687	158	40
99	44039	159	40
99	44361	160	40
99	44681	161	40
99	45000	162	40
99	45283	163	40
99	45591	164	40
99	45937	165	40
99	46210	166	40
99	46480	167	40
99	46747	168	40
99	47013	169	40
99	47318	170	40
99	47623	171	40
99	47929	172	40
99	48207	173	40
99	48487	174	40
99	48763	175	40

